
---------- Begin Simulation Statistics ----------
simSeconds                                   2.221183                       # Number of seconds simulated (Second)
simTicks                                 2221183482358                       # Number of ticks simulated (Tick)
finalTick                                2221183482358                       # Number of ticks from beginning of simulation (restored from checkpoints and never reset) (Tick)
simFreq                                  1000000000000                       # The number of ticks per simulated second ((Tick/Second))
hostSeconds                                    106.48                       # Real time elapsed on the host (Second)
hostTickRate                              20860213361                       # The number of ticks simulated per host second (ticks/s) ((Tick/Second))
hostMemory                                    8617272                       # Number of bytes of host memory used (Byte)
simInsts                                    100697707                       # Number of instructions simulated (Count)
simOps                                      169819174                       # Number of ops (including micro ops) simulated (Count)
hostInstRate                                   945694                       # Simulator instruction rate (inst/s) ((Count/Second))
hostOpRate                                    1594842                       # Simulator op (including micro ops) rate (op/s) ((Count/Second))
system.clk_domain.clock                         13333                       # Clock period in ticks (Tick)
system.clk_domain.voltage_domain.voltage            1                       # Voltage in Volts (Volt)
system.cpu.numCycles                        166592926                       # Number of cpu cycles simulated (Cycle)
system.cpu.cpi                               1.654379                       # CPI: cycles per instruction (core level) ((Cycle/Count))
system.cpu.ipc                               0.604456                       # IPC: instructions per cycle (core level) ((Count/Cycle))
system.cpu.numWorkItemsStarted                      0                       # Number of work items this cpu started (Count)
system.cpu.numWorkItemsCompleted                    0                       # Number of work items this cpu completed (Count)
system.cpu.commitStats0.numInsts            100698146                       # Number of instructions committed (thread level) (Count)
system.cpu.commitStats0.numOps              169819811                       # Number of ops (including micro ops) committed (thread level) (Count)
system.cpu.commitStats0.numInstsNotNOP              0                       # Number of instructions committed excluding NOPs or prefetches (Count)
system.cpu.commitStats0.numOpsNotNOP                0                       # Number of Ops (including micro ops) Simulated (Count)
system.cpu.commitStats0.cpi                  1.654379                       # CPI: cycles per instruction (thread level) ((Cycle/Count))
system.cpu.commitStats0.ipc                  0.604456                       # IPC: instructions per cycle (thread level) ((Count/Cycle))
system.cpu.commitStats0.numMemRefs                  0                       # Number of memory references committed (Count)
system.cpu.commitStats0.numFpInsts            2334238                       # Number of float instructions (Count)
system.cpu.commitStats0.numIntInsts         166264921                       # Number of integer instructions (Count)
system.cpu.commitStats0.numLoadInsts         22124896                       # Number of load instructions (Count)
system.cpu.commitStats0.numStoreInsts         9457886                       # Number of store instructions (Count)
system.cpu.commitStats0.numVecInsts                 0                       # Number of vector instructions (Count)
system.cpu.commitStats0.committedInstType::No_OpClass      2629269      1.55%      1.55% # Class of committed instruction. (Count)
system.cpu.commitStats0.committedInstType::IntAlu    134739730     79.34%     80.89% # Class of committed instruction. (Count)
system.cpu.commitStats0.committedInstType::IntMult          217      0.00%     80.89% # Class of committed instruction. (Count)
system.cpu.commitStats0.committedInstType::IntDiv        41000      0.02%     80.92% # Class of committed instruction. (Count)
system.cpu.commitStats0.committedInstType::FloatAdd       103329      0.06%     80.98% # Class of committed instruction. (Count)
system.cpu.commitStats0.committedInstType::FloatCmp            0      0.00%     80.98% # Class of committed instruction. (Count)
system.cpu.commitStats0.committedInstType::FloatCvt         1264      0.00%     80.98% # Class of committed instruction. (Count)
system.cpu.commitStats0.committedInstType::FloatMult            0      0.00%     80.98% # Class of committed instruction. (Count)
system.cpu.commitStats0.committedInstType::FloatMultAcc            0      0.00%     80.98% # Class of committed instruction. (Count)
system.cpu.commitStats0.committedInstType::FloatDiv            0      0.00%     80.98% # Class of committed instruction. (Count)
system.cpu.commitStats0.committedInstType::FloatMisc            0      0.00%     80.98% # Class of committed instruction. (Count)
system.cpu.commitStats0.committedInstType::FloatSqrt            0      0.00%     80.98% # Class of committed instruction. (Count)
system.cpu.commitStats0.committedInstType::SimdAdd         6400      0.00%     80.98% # Class of committed instruction. (Count)
system.cpu.commitStats0.committedInstType::SimdAddAcc            0      0.00%     80.98% # Class of committed instruction. (Count)
system.cpu.commitStats0.committedInstType::SimdAlu       111268      0.07%     81.05% # Class of committed instruction. (Count)
system.cpu.commitStats0.committedInstType::SimdCmp           12      0.00%     81.05% # Class of committed instruction. (Count)
system.cpu.commitStats0.committedInstType::SimdCvt        13290      0.01%     81.05% # Class of committed instruction. (Count)
system.cpu.commitStats0.committedInstType::SimdMisc       589398      0.35%     81.40% # Class of committed instruction. (Count)
system.cpu.commitStats0.committedInstType::SimdMult            0      0.00%     81.40% # Class of committed instruction. (Count)
system.cpu.commitStats0.committedInstType::SimdMultAcc            0      0.00%     81.40% # Class of committed instruction. (Count)
system.cpu.commitStats0.committedInstType::SimdMatMultAcc            0      0.00%     81.40% # Class of committed instruction. (Count)
system.cpu.commitStats0.committedInstType::SimdShift         1612      0.00%     81.40% # Class of committed instruction. (Count)
system.cpu.commitStats0.committedInstType::SimdShiftAcc            0      0.00%     81.40% # Class of committed instruction. (Count)
system.cpu.commitStats0.committedInstType::SimdDiv            0      0.00%     81.40% # Class of committed instruction. (Count)
system.cpu.commitStats0.committedInstType::SimdSqrt            0      0.00%     81.40% # Class of committed instruction. (Count)
system.cpu.commitStats0.committedInstType::SimdFloatAdd           60      0.00%     81.40% # Class of committed instruction. (Count)
system.cpu.commitStats0.committedInstType::SimdFloatAlu            0      0.00%     81.40% # Class of committed instruction. (Count)
system.cpu.commitStats0.committedInstType::SimdFloatCmp            0      0.00%     81.40% # Class of committed instruction. (Count)
system.cpu.commitStats0.committedInstType::SimdFloatCvt          120      0.00%     81.40% # Class of committed instruction. (Count)
system.cpu.commitStats0.committedInstType::SimdFloatDiv           60      0.00%     81.40% # Class of committed instruction. (Count)
system.cpu.commitStats0.committedInstType::SimdFloatMisc            0      0.00%     81.40% # Class of committed instruction. (Count)
system.cpu.commitStats0.committedInstType::SimdFloatMult            0      0.00%     81.40% # Class of committed instruction. (Count)
system.cpu.commitStats0.committedInstType::SimdFloatMultAcc            0      0.00%     81.40% # Class of committed instruction. (Count)
system.cpu.commitStats0.committedInstType::SimdFloatMatMultAcc            0      0.00%     81.40% # Class of committed instruction. (Count)
system.cpu.commitStats0.committedInstType::SimdFloatSqrt            0      0.00%     81.40% # Class of committed instruction. (Count)
system.cpu.commitStats0.committedInstType::SimdReduceAdd            0      0.00%     81.40% # Class of committed instruction. (Count)
system.cpu.commitStats0.committedInstType::SimdReduceAlu            0      0.00%     81.40% # Class of committed instruction. (Count)
system.cpu.commitStats0.committedInstType::SimdReduceCmp            0      0.00%     81.40% # Class of committed instruction. (Count)
system.cpu.commitStats0.committedInstType::SimdFloatReduceAdd            0      0.00%     81.40% # Class of committed instruction. (Count)
system.cpu.commitStats0.committedInstType::SimdFloatReduceCmp            0      0.00%     81.40% # Class of committed instruction. (Count)
system.cpu.commitStats0.committedInstType::SimdAes            0      0.00%     81.40% # Class of committed instruction. (Count)
system.cpu.commitStats0.committedInstType::SimdAesMix            0      0.00%     81.40% # Class of committed instruction. (Count)
system.cpu.commitStats0.committedInstType::SimdSha1Hash            0      0.00%     81.40% # Class of committed instruction. (Count)
system.cpu.commitStats0.committedInstType::SimdSha1Hash2            0      0.00%     81.40% # Class of committed instruction. (Count)
system.cpu.commitStats0.committedInstType::SimdSha256Hash            0      0.00%     81.40% # Class of committed instruction. (Count)
system.cpu.commitStats0.committedInstType::SimdSha256Hash2            0      0.00%     81.40% # Class of committed instruction. (Count)
system.cpu.commitStats0.committedInstType::SimdShaSigma2            0      0.00%     81.40% # Class of committed instruction. (Count)
system.cpu.commitStats0.committedInstType::SimdShaSigma3            0      0.00%     81.40% # Class of committed instruction. (Count)
system.cpu.commitStats0.committedInstType::SimdPredAlu            0      0.00%     81.40% # Class of committed instruction. (Count)
system.cpu.commitStats0.committedInstType::Matrix            0      0.00%     81.40% # Class of committed instruction. (Count)
system.cpu.commitStats0.committedInstType::MatrixMov            0      0.00%     81.40% # Class of committed instruction. (Count)
system.cpu.commitStats0.committedInstType::MatrixOP            0      0.00%     81.40% # Class of committed instruction. (Count)
system.cpu.commitStats0.committedInstType::MemRead     21487450     12.65%     94.06% # Class of committed instruction. (Count)
system.cpu.commitStats0.committedInstType::MemWrite      8783689      5.17%     99.23% # Class of committed instruction. (Count)
system.cpu.commitStats0.committedInstType::FloatMemRead       637446      0.38%     99.60% # Class of committed instruction. (Count)
system.cpu.commitStats0.committedInstType::FloatMemWrite       674197      0.40%    100.00% # Class of committed instruction. (Count)
system.cpu.commitStats0.committedInstType::IprAccess            0      0.00%    100.00% # Class of committed instruction. (Count)
system.cpu.commitStats0.committedInstType::InstPrefetch            0      0.00%    100.00% # Class of committed instruction. (Count)
system.cpu.commitStats0.committedInstType::SimdUnitStrideLoad            0      0.00%    100.00% # Class of committed instruction. (Count)
system.cpu.commitStats0.committedInstType::SimdUnitStrideStore            0      0.00%    100.00% # Class of committed instruction. (Count)
system.cpu.commitStats0.committedInstType::SimdUnitStrideMaskLoad            0      0.00%    100.00% # Class of committed instruction. (Count)
system.cpu.commitStats0.committedInstType::SimdUnitStrideMaskStore            0      0.00%    100.00% # Class of committed instruction. (Count)
system.cpu.commitStats0.committedInstType::SimdStridedLoad            0      0.00%    100.00% # Class of committed instruction. (Count)
system.cpu.commitStats0.committedInstType::SimdStridedStore            0      0.00%    100.00% # Class of committed instruction. (Count)
system.cpu.commitStats0.committedInstType::SimdIndexedLoad            0      0.00%    100.00% # Class of committed instruction. (Count)
system.cpu.commitStats0.committedInstType::SimdIndexedStore            0      0.00%    100.00% # Class of committed instruction. (Count)
system.cpu.commitStats0.committedInstType::SimdWholeRegisterLoad            0      0.00%    100.00% # Class of committed instruction. (Count)
system.cpu.commitStats0.committedInstType::SimdWholeRegisterStore            0      0.00%    100.00% # Class of committed instruction. (Count)
system.cpu.commitStats0.committedInstType::SimdUnitStrideFaultOnlyFirstLoad            0      0.00%    100.00% # Class of committed instruction. (Count)
system.cpu.commitStats0.committedInstType::SimdUnitStrideSegmentedLoad            0      0.00%    100.00% # Class of committed instruction. (Count)
system.cpu.commitStats0.committedInstType::SimdUnitStrideSegmentedStore            0      0.00%    100.00% # Class of committed instruction. (Count)
system.cpu.commitStats0.committedInstType::SimdExt            0      0.00%    100.00% # Class of committed instruction. (Count)
system.cpu.commitStats0.committedInstType::SimdFloatExt            0      0.00%    100.00% # Class of committed instruction. (Count)
system.cpu.commitStats0.committedInstType::SimdConfig            0      0.00%    100.00% # Class of committed instruction. (Count)
system.cpu.commitStats0.committedInstType::total    169819811                       # Class of committed instruction. (Count)
system.cpu.commitStats0.committedControl::IsControl     23867088                       # Class of control type instructions committed (Count)
system.cpu.commitStats0.committedControl::IsDirectControl     23702376                       # Class of control type instructions committed (Count)
system.cpu.commitStats0.committedControl::IsIndirectControl       164468                       # Class of control type instructions committed (Count)
system.cpu.commitStats0.committedControl::IsCondControl     20877359                       # Class of control type instructions committed (Count)
system.cpu.commitStats0.committedControl::IsUncondControl      2989485                       # Class of control type instructions committed (Count)
system.cpu.commitStats0.committedControl::IsCall       158437                       # Class of control type instructions committed (Count)
system.cpu.commitStats0.committedControl::IsReturn       158432                       # Class of control type instructions committed (Count)
system.cpu.exec_context.thread_0.numMatAluAccesses            0                       # Number of matrix alu accesses (Count)
system.cpu.exec_context.thread_0.numCallsReturns       316869                       # Number of times a function call or return occured (Count)
system.cpu.exec_context.thread_0.numMatInsts            0                       # Number of matrix instructions (Count)
system.cpu.exec_context.thread_0.numIdleCycles            0                       # Number of idle cycles (Cycle)
system.cpu.exec_context.thread_0.numBusyCycles    166592926                       # Number of busy cycles (Cycle)
system.cpu.exec_context.thread_0.notIdleFraction            1                       # Percentage of non-idle cycles (Ratio)
system.cpu.exec_context.thread_0.idleFraction            0                       # Percentage of idle cycles (Ratio)
system.cpu.executeStats0.numInsts                   0                       # Number of executed instructions (Count)
system.cpu.executeStats0.numNop                     0                       # Number of nop insts executed (Count)
system.cpu.executeStats0.numBranches                0                       # Number of branches executed (Count)
system.cpu.executeStats0.numLoadInsts               0                       # Number of load instructions executed (Count)
system.cpu.executeStats0.numStoreInsts       31582782                       # Number of stores executed (Count)
system.cpu.executeStats0.instRate                   0                       # Inst execution rate ((Count/Cycle))
system.cpu.executeStats0.numFpAluAccesses      2334238                       # Number of float alu accesses (Count)
system.cpu.executeStats0.numFpRegReads        2710193                       # Number of times the floating registers were read (Count)
system.cpu.executeStats0.numFpRegWrites       1459867                       # Number of times the floating registers were written (Count)
system.cpu.executeStats0.numIntAluAccesses    166264921                       # Number of integer alu accesses (Count)
system.cpu.executeStats0.numIntRegReads     177343236                       # Number of times the integer registers were read (Count)
system.cpu.executeStats0.numIntRegWrites    111554440                       # Number of times the integer registers were written (Count)
system.cpu.executeStats0.numMemRefs          31582782                       # Number of memory refs (Count)
system.cpu.executeStats0.numMiscRegReads     79216563                       # Number of times the Misc registers were read (Count)
system.cpu.executeStats0.numMiscRegWrites          711                       # Number of times the Misc registers were written (Count)
system.cpu.executeStats0.numVecAluAccesses            0                       # Number of vector alu accesses (Count)
system.cpu.executeStats0.numDiscardedOps            0                       # Number of ops (including micro ops) which were discarded before commit (Count)
system.cpu.fetchStats0.numInsts             100698146                       # Number of instructions fetched (thread level) (Count)
system.cpu.fetchStats0.numOps               169819811                       # Number of ops (including micro ops) fetched (thread level) (Count)
system.cpu.fetchStats0.fetchRate             0.604456                       # Number of inst fetches per cycle ((Count/Cycle))
system.cpu.fetchStats0.numBranches           23867088                       # Number of branches fetched (Count)
system.cpu.fetchStats0.branchRate            0.143266                       # Number of branch fetches per cycle (Ratio)
system.cpu.fetchStats0.numFetchSuspends             0                       # Number of times Execute suspended instruction fetching (Count)
system.cpu.interrupts.clk_domain.clock         213328                       # Clock period in ticks (Tick)
system.cpu.l1d.demandHits::cpu.data          30985479                       # number of demand (read+write) hits (Count)
system.cpu.l1d.demandHits::total             30985479                       # number of demand (read+write) hits (Count)
system.cpu.l1d.overallHits::cpu.data         30985479                       # number of overall hits (Count)
system.cpu.l1d.overallHits::total            30985479                       # number of overall hits (Count)
system.cpu.l1d.demandMisses::cpu.data          602964                       # number of demand (read+write) misses (Count)
system.cpu.l1d.demandMisses::total             602964                       # number of demand (read+write) misses (Count)
system.cpu.l1d.overallMisses::cpu.data         602964                       # number of overall misses (Count)
system.cpu.l1d.overallMisses::total            602964                       # number of overall misses (Count)
system.cpu.l1d.demandMissLatency::cpu.data 126211804626                       # number of demand (read+write) miss ticks (Tick)
system.cpu.l1d.demandMissLatency::total  126211804626                       # number of demand (read+write) miss ticks (Tick)
system.cpu.l1d.overallMissLatency::cpu.data 126211804626                       # number of overall miss ticks (Tick)
system.cpu.l1d.overallMissLatency::total 126211804626                       # number of overall miss ticks (Tick)
system.cpu.l1d.demandAccesses::cpu.data      31588443                       # number of demand (read+write) accesses (Count)
system.cpu.l1d.demandAccesses::total         31588443                       # number of demand (read+write) accesses (Count)
system.cpu.l1d.overallAccesses::cpu.data     31588443                       # number of overall (read+write) accesses (Count)
system.cpu.l1d.overallAccesses::total        31588443                       # number of overall (read+write) accesses (Count)
system.cpu.l1d.demandMissRate::cpu.data      0.019088                       # miss rate for demand accesses (Ratio)
system.cpu.l1d.demandMissRate::total         0.019088                       # miss rate for demand accesses (Ratio)
system.cpu.l1d.overallMissRate::cpu.data     0.019088                       # miss rate for overall accesses (Ratio)
system.cpu.l1d.overallMissRate::total        0.019088                       # miss rate for overall accesses (Ratio)
system.cpu.l1d.demandAvgMissLatency::cpu.data 209318.971988                       # average overall miss latency in ticks ((Tick/Count))
system.cpu.l1d.demandAvgMissLatency::total 209318.971988                       # average overall miss latency in ticks ((Tick/Count))
system.cpu.l1d.overallAvgMissLatency::cpu.data 209318.971988                       # average overall miss latency ((Tick/Count))
system.cpu.l1d.overallAvgMissLatency::total 209318.971988                       # average overall miss latency ((Tick/Count))
system.cpu.l1d.blockedCycles::no_mshrs              0                       # number of cycles access was blocked (Cycle)
system.cpu.l1d.blockedCycles::no_targets            0                       # number of cycles access was blocked (Cycle)
system.cpu.l1d.blockedCauses::no_mshrs              0                       # number of times access was blocked (Count)
system.cpu.l1d.blockedCauses::no_targets            0                       # number of times access was blocked (Count)
system.cpu.l1d.avgBlocked::no_mshrs               nan                       # average number of cycles each access was blocked ((Cycle/Count))
system.cpu.l1d.avgBlocked::no_targets             nan                       # average number of cycles each access was blocked ((Cycle/Count))
system.cpu.l1d.writebacks::writebacks          485291                       # number of writebacks (Count)
system.cpu.l1d.writebacks::total               485291                       # number of writebacks (Count)
system.cpu.l1d.demandMshrMisses::cpu.data       602964                       # number of demand (read+write) MSHR misses (Count)
system.cpu.l1d.demandMshrMisses::total         602964                       # number of demand (read+write) MSHR misses (Count)
system.cpu.l1d.overallMshrMisses::cpu.data       602964                       # number of overall MSHR misses (Count)
system.cpu.l1d.overallMshrMisses::total        602964                       # number of overall MSHR misses (Count)
system.cpu.l1d.demandMshrMissLatency::cpu.data 118172485614                       # number of demand (read+write) MSHR miss ticks (Tick)
system.cpu.l1d.demandMshrMissLatency::total 118172485614                       # number of demand (read+write) MSHR miss ticks (Tick)
system.cpu.l1d.overallMshrMissLatency::cpu.data 118172485614                       # number of overall MSHR miss ticks (Tick)
system.cpu.l1d.overallMshrMissLatency::total 118172485614                       # number of overall MSHR miss ticks (Tick)
system.cpu.l1d.demandMshrMissRate::cpu.data     0.019088                       # mshr miss ratio for demand accesses (Ratio)
system.cpu.l1d.demandMshrMissRate::total     0.019088                       # mshr miss ratio for demand accesses (Ratio)
system.cpu.l1d.overallMshrMissRate::cpu.data     0.019088                       # mshr miss ratio for overall accesses (Ratio)
system.cpu.l1d.overallMshrMissRate::total     0.019088                       # mshr miss ratio for overall accesses (Ratio)
system.cpu.l1d.demandAvgMshrMissLatency::cpu.data 195985.971988                       # average overall mshr miss latency ((Tick/Count))
system.cpu.l1d.demandAvgMshrMissLatency::total 195985.971988                       # average overall mshr miss latency ((Tick/Count))
system.cpu.l1d.overallAvgMshrMissLatency::cpu.data 195985.971988                       # average overall mshr miss latency ((Tick/Count))
system.cpu.l1d.overallAvgMshrMissLatency::total 195985.971988                       # average overall mshr miss latency ((Tick/Count))
system.cpu.l1d.replacements                    602969                       # number of replacements (Count)
system.cpu.l1d.LockedRMWReadReq.hits::cpu.data          423                       # number of LockedRMWReadReq hits (Count)
system.cpu.l1d.LockedRMWReadReq.hits::total          423                       # number of LockedRMWReadReq hits (Count)
system.cpu.l1d.LockedRMWReadReq.misses::cpu.data           69                       # number of LockedRMWReadReq misses (Count)
system.cpu.l1d.LockedRMWReadReq.misses::total           69                       # number of LockedRMWReadReq misses (Count)
system.cpu.l1d.LockedRMWReadReq.missLatency::cpu.data     14186312                       # number of LockedRMWReadReq miss ticks (Tick)
system.cpu.l1d.LockedRMWReadReq.missLatency::total     14186312                       # number of LockedRMWReadReq miss ticks (Tick)
system.cpu.l1d.LockedRMWReadReq.accesses::cpu.data          492                       # number of LockedRMWReadReq accesses(hits+misses) (Count)
system.cpu.l1d.LockedRMWReadReq.accesses::total          492                       # number of LockedRMWReadReq accesses(hits+misses) (Count)
system.cpu.l1d.LockedRMWReadReq.missRate::cpu.data     0.140244                       # miss rate for LockedRMWReadReq accesses (Ratio)
system.cpu.l1d.LockedRMWReadReq.missRate::total     0.140244                       # miss rate for LockedRMWReadReq accesses (Ratio)
system.cpu.l1d.LockedRMWReadReq.avgMissLatency::cpu.data 205598.724638                       # average LockedRMWReadReq miss latency ((Tick/Count))
system.cpu.l1d.LockedRMWReadReq.avgMissLatency::total 205598.724638                       # average LockedRMWReadReq miss latency ((Tick/Count))
system.cpu.l1d.LockedRMWReadReq.mshrMisses::cpu.data           69                       # number of LockedRMWReadReq MSHR misses (Count)
system.cpu.l1d.LockedRMWReadReq.mshrMisses::total           69                       # number of LockedRMWReadReq MSHR misses (Count)
system.cpu.l1d.LockedRMWReadReq.mshrMissLatency::cpu.data     33092506                       # number of LockedRMWReadReq MSHR miss ticks (Tick)
system.cpu.l1d.LockedRMWReadReq.mshrMissLatency::total     33092506                       # number of LockedRMWReadReq MSHR miss ticks (Tick)
system.cpu.l1d.LockedRMWReadReq.mshrMissRate::cpu.data     0.140244                       # mshr miss rate for LockedRMWReadReq accesses (Ratio)
system.cpu.l1d.LockedRMWReadReq.mshrMissRate::total     0.140244                       # mshr miss rate for LockedRMWReadReq accesses (Ratio)
system.cpu.l1d.LockedRMWReadReq.avgMshrMissLatency::cpu.data 479601.536232                       # average LockedRMWReadReq mshr miss latency ((Tick/Count))
system.cpu.l1d.LockedRMWReadReq.avgMshrMissLatency::total 479601.536232                       # average LockedRMWReadReq mshr miss latency ((Tick/Count))
system.cpu.l1d.LockedRMWWriteReq.hits::cpu.data          492                       # number of LockedRMWWriteReq hits (Count)
system.cpu.l1d.LockedRMWWriteReq.hits::total          492                       # number of LockedRMWWriteReq hits (Count)
system.cpu.l1d.LockedRMWWriteReq.accesses::cpu.data          492                       # number of LockedRMWWriteReq accesses(hits+misses) (Count)
system.cpu.l1d.LockedRMWWriteReq.accesses::total          492                       # number of LockedRMWWriteReq accesses(hits+misses) (Count)
system.cpu.l1d.ReadReq.hits::cpu.data        21608707                       # number of ReadReq hits (Count)
system.cpu.l1d.ReadReq.hits::total           21608707                       # number of ReadReq hits (Count)
system.cpu.l1d.ReadReq.misses::cpu.data        520068                       # number of ReadReq misses (Count)
system.cpu.l1d.ReadReq.misses::total           520068                       # number of ReadReq misses (Count)
system.cpu.l1d.ReadReq.missLatency::cpu.data 109426717597                       # number of ReadReq miss ticks (Tick)
system.cpu.l1d.ReadReq.missLatency::total 109426717597                       # number of ReadReq miss ticks (Tick)
system.cpu.l1d.ReadReq.accesses::cpu.data     22128775                       # number of ReadReq accesses(hits+misses) (Count)
system.cpu.l1d.ReadReq.accesses::total       22128775                       # number of ReadReq accesses(hits+misses) (Count)
system.cpu.l1d.ReadReq.missRate::cpu.data     0.023502                       # miss rate for ReadReq accesses (Ratio)
system.cpu.l1d.ReadReq.missRate::total       0.023502                       # miss rate for ReadReq accesses (Ratio)
system.cpu.l1d.ReadReq.avgMissLatency::cpu.data 210408.480424                       # average ReadReq miss latency ((Tick/Count))
system.cpu.l1d.ReadReq.avgMissLatency::total 210408.480424                       # average ReadReq miss latency ((Tick/Count))
system.cpu.l1d.ReadReq.mshrMisses::cpu.data       520068                       # number of ReadReq MSHR misses (Count)
system.cpu.l1d.ReadReq.mshrMisses::total       520068                       # number of ReadReq MSHR misses (Count)
system.cpu.l1d.ReadReq.mshrMissLatency::cpu.data 102492650953                       # number of ReadReq MSHR miss ticks (Tick)
system.cpu.l1d.ReadReq.mshrMissLatency::total 102492650953                       # number of ReadReq MSHR miss ticks (Tick)
system.cpu.l1d.ReadReq.mshrMissRate::cpu.data     0.023502                       # mshr miss rate for ReadReq accesses (Ratio)
system.cpu.l1d.ReadReq.mshrMissRate::total     0.023502                       # mshr miss rate for ReadReq accesses (Ratio)
system.cpu.l1d.ReadReq.avgMshrMissLatency::cpu.data 197075.480424                       # average ReadReq mshr miss latency ((Tick/Count))
system.cpu.l1d.ReadReq.avgMshrMissLatency::total 197075.480424                       # average ReadReq mshr miss latency ((Tick/Count))
system.cpu.l1d.WriteReq.hits::cpu.data        9376772                       # number of WriteReq hits (Count)
system.cpu.l1d.WriteReq.hits::total           9376772                       # number of WriteReq hits (Count)
system.cpu.l1d.WriteReq.misses::cpu.data        82896                       # number of WriteReq misses (Count)
system.cpu.l1d.WriteReq.misses::total           82896                       # number of WriteReq misses (Count)
system.cpu.l1d.WriteReq.missLatency::cpu.data  16785087029                       # number of WriteReq miss ticks (Tick)
system.cpu.l1d.WriteReq.missLatency::total  16785087029                       # number of WriteReq miss ticks (Tick)
system.cpu.l1d.WriteReq.accesses::cpu.data      9459668                       # number of WriteReq accesses(hits+misses) (Count)
system.cpu.l1d.WriteReq.accesses::total       9459668                       # number of WriteReq accesses(hits+misses) (Count)
system.cpu.l1d.WriteReq.missRate::cpu.data     0.008763                       # miss rate for WriteReq accesses (Ratio)
system.cpu.l1d.WriteReq.missRate::total      0.008763                       # miss rate for WriteReq accesses (Ratio)
system.cpu.l1d.WriteReq.avgMissLatency::cpu.data 202483.678694                       # average WriteReq miss latency ((Tick/Count))
system.cpu.l1d.WriteReq.avgMissLatency::total 202483.678694                       # average WriteReq miss latency ((Tick/Count))
system.cpu.l1d.WriteReq.mshrMisses::cpu.data        82896                       # number of WriteReq MSHR misses (Count)
system.cpu.l1d.WriteReq.mshrMisses::total        82896                       # number of WriteReq MSHR misses (Count)
system.cpu.l1d.WriteReq.mshrMissLatency::cpu.data  15679834661                       # number of WriteReq MSHR miss ticks (Tick)
system.cpu.l1d.WriteReq.mshrMissLatency::total  15679834661                       # number of WriteReq MSHR miss ticks (Tick)
system.cpu.l1d.WriteReq.mshrMissRate::cpu.data     0.008763                       # mshr miss rate for WriteReq accesses (Ratio)
system.cpu.l1d.WriteReq.mshrMissRate::total     0.008763                       # mshr miss rate for WriteReq accesses (Ratio)
system.cpu.l1d.WriteReq.avgMshrMissLatency::cpu.data 189150.678694                       # average WriteReq mshr miss latency ((Tick/Count))
system.cpu.l1d.WriteReq.avgMshrMissLatency::total 189150.678694                       # average WriteReq mshr miss latency ((Tick/Count))
system.cpu.l1d.power_state.pwrStateResidencyTicks::UNDEFINED 2221183482358                       # Cumulative time (in ticks) in various power states (Tick)
system.cpu.l1d.tags.tagsInUse               63.999331                       # Average ticks per tags in use ((Tick/Count))
system.cpu.l1d.tags.totalRefs                31588928                       # Total number of references to valid blocks. (Count)
system.cpu.l1d.tags.sampledRefs                602969                       # Sample count of references to valid blocks. (Count)
system.cpu.l1d.tags.avgRefs                 52.388975                       # Average number of references to valid blocks. ((Count/Count))
system.cpu.l1d.tags.warmupTick                 479988                       # The tick when the warmup percentage was hit. (Tick)
system.cpu.l1d.tags.occupancies::cpu.data    63.999331                       # Average occupied blocks per tick, per requestor ((Count/Tick))
system.cpu.l1d.tags.avgOccs::cpu.data        0.999990                       # Average percentage of cache occupancy ((Ratio/Tick))
system.cpu.l1d.tags.avgOccs::total           0.999990                       # Average percentage of cache occupancy ((Ratio/Tick))
system.cpu.l1d.tags.occupanciesTaskId::1024           64                       # Occupied blocks per task id (Count)
system.cpu.l1d.tags.ageTaskId_1024::0              14                       # Occupied blocks per task id, per block age (Count)
system.cpu.l1d.tags.ageTaskId_1024::1              50                       # Occupied blocks per task id, per block age (Count)
system.cpu.l1d.tags.ratioOccsTaskId::1024            1                       # Ratio of occupied blocks and all blocks, per task id (Ratio)
system.cpu.l1d.tags.tagAccesses              63781887                       # Number of tag accesses (Count)
system.cpu.l1d.tags.dataAccesses             63781887                       # Number of data accesses (Count)
system.cpu.l1d.tags.power_state.pwrStateResidencyTicks::UNDEFINED 2221183482358                       # Cumulative time (in ticks) in various power states (Tick)
system.cpu.l1i.demandHits::cpu.inst         125754720                       # number of demand (read+write) hits (Count)
system.cpu.l1i.demandHits::total            125754720                       # number of demand (read+write) hits (Count)
system.cpu.l1i.overallHits::cpu.inst        125754720                       # number of overall hits (Count)
system.cpu.l1i.overallHits::total           125754720                       # number of overall hits (Count)
system.cpu.l1i.demandMisses::cpu.inst           19435                       # number of demand (read+write) misses (Count)
system.cpu.l1i.demandMisses::total              19435                       # number of demand (read+write) misses (Count)
system.cpu.l1i.overallMisses::cpu.inst          19435                       # number of overall misses (Count)
system.cpu.l1i.overallMisses::total             19435                       # number of overall misses (Count)
system.cpu.l1i.demandMissLatency::cpu.inst   4162762595                       # number of demand (read+write) miss ticks (Tick)
system.cpu.l1i.demandMissLatency::total    4162762595                       # number of demand (read+write) miss ticks (Tick)
system.cpu.l1i.overallMissLatency::cpu.inst   4162762595                       # number of overall miss ticks (Tick)
system.cpu.l1i.overallMissLatency::total   4162762595                       # number of overall miss ticks (Tick)
system.cpu.l1i.demandAccesses::cpu.inst     125774155                       # number of demand (read+write) accesses (Count)
system.cpu.l1i.demandAccesses::total        125774155                       # number of demand (read+write) accesses (Count)
system.cpu.l1i.overallAccesses::cpu.inst    125774155                       # number of overall (read+write) accesses (Count)
system.cpu.l1i.overallAccesses::total       125774155                       # number of overall (read+write) accesses (Count)
system.cpu.l1i.demandMissRate::cpu.inst      0.000155                       # miss rate for demand accesses (Ratio)
system.cpu.l1i.demandMissRate::total         0.000155                       # miss rate for demand accesses (Ratio)
system.cpu.l1i.overallMissRate::cpu.inst     0.000155                       # miss rate for overall accesses (Ratio)
system.cpu.l1i.overallMissRate::total        0.000155                       # miss rate for overall accesses (Ratio)
system.cpu.l1i.demandAvgMissLatency::cpu.inst 214188.968099                       # average overall miss latency in ticks ((Tick/Count))
system.cpu.l1i.demandAvgMissLatency::total 214188.968099                       # average overall miss latency in ticks ((Tick/Count))
system.cpu.l1i.overallAvgMissLatency::cpu.inst 214188.968099                       # average overall miss latency ((Tick/Count))
system.cpu.l1i.overallAvgMissLatency::total 214188.968099                       # average overall miss latency ((Tick/Count))
system.cpu.l1i.blockedCycles::no_mshrs              0                       # number of cycles access was blocked (Cycle)
system.cpu.l1i.blockedCycles::no_targets            0                       # number of cycles access was blocked (Cycle)
system.cpu.l1i.blockedCauses::no_mshrs              0                       # number of times access was blocked (Count)
system.cpu.l1i.blockedCauses::no_targets            0                       # number of times access was blocked (Count)
system.cpu.l1i.avgBlocked::no_mshrs               nan                       # average number of cycles each access was blocked ((Cycle/Count))
system.cpu.l1i.avgBlocked::no_targets             nan                       # average number of cycles each access was blocked ((Cycle/Count))
system.cpu.l1i.demandMshrMisses::cpu.inst        19435                       # number of demand (read+write) MSHR misses (Count)
system.cpu.l1i.demandMshrMisses::total          19435                       # number of demand (read+write) MSHR misses (Count)
system.cpu.l1i.overallMshrMisses::cpu.inst        19435                       # number of overall MSHR misses (Count)
system.cpu.l1i.overallMshrMisses::total         19435                       # number of overall MSHR misses (Count)
system.cpu.l1i.demandMshrMissLatency::cpu.inst   3903635740                       # number of demand (read+write) MSHR miss ticks (Tick)
system.cpu.l1i.demandMshrMissLatency::total   3903635740                       # number of demand (read+write) MSHR miss ticks (Tick)
system.cpu.l1i.overallMshrMissLatency::cpu.inst   3903635740                       # number of overall MSHR miss ticks (Tick)
system.cpu.l1i.overallMshrMissLatency::total   3903635740                       # number of overall MSHR miss ticks (Tick)
system.cpu.l1i.demandMshrMissRate::cpu.inst     0.000155                       # mshr miss ratio for demand accesses (Ratio)
system.cpu.l1i.demandMshrMissRate::total     0.000155                       # mshr miss ratio for demand accesses (Ratio)
system.cpu.l1i.overallMshrMissRate::cpu.inst     0.000155                       # mshr miss ratio for overall accesses (Ratio)
system.cpu.l1i.overallMshrMissRate::total     0.000155                       # mshr miss ratio for overall accesses (Ratio)
system.cpu.l1i.demandAvgMshrMissLatency::cpu.inst 200855.968099                       # average overall mshr miss latency ((Tick/Count))
system.cpu.l1i.demandAvgMshrMissLatency::total 200855.968099                       # average overall mshr miss latency ((Tick/Count))
system.cpu.l1i.overallAvgMshrMissLatency::cpu.inst 200855.968099                       # average overall mshr miss latency ((Tick/Count))
system.cpu.l1i.overallAvgMshrMissLatency::total 200855.968099                       # average overall mshr miss latency ((Tick/Count))
system.cpu.l1i.replacements                     19371                       # number of replacements (Count)
system.cpu.l1i.ReadReq.hits::cpu.inst       125754720                       # number of ReadReq hits (Count)
system.cpu.l1i.ReadReq.hits::total          125754720                       # number of ReadReq hits (Count)
system.cpu.l1i.ReadReq.misses::cpu.inst         19435                       # number of ReadReq misses (Count)
system.cpu.l1i.ReadReq.misses::total            19435                       # number of ReadReq misses (Count)
system.cpu.l1i.ReadReq.missLatency::cpu.inst   4162762595                       # number of ReadReq miss ticks (Tick)
system.cpu.l1i.ReadReq.missLatency::total   4162762595                       # number of ReadReq miss ticks (Tick)
system.cpu.l1i.ReadReq.accesses::cpu.inst    125774155                       # number of ReadReq accesses(hits+misses) (Count)
system.cpu.l1i.ReadReq.accesses::total      125774155                       # number of ReadReq accesses(hits+misses) (Count)
system.cpu.l1i.ReadReq.missRate::cpu.inst     0.000155                       # miss rate for ReadReq accesses (Ratio)
system.cpu.l1i.ReadReq.missRate::total       0.000155                       # miss rate for ReadReq accesses (Ratio)
system.cpu.l1i.ReadReq.avgMissLatency::cpu.inst 214188.968099                       # average ReadReq miss latency ((Tick/Count))
system.cpu.l1i.ReadReq.avgMissLatency::total 214188.968099                       # average ReadReq miss latency ((Tick/Count))
system.cpu.l1i.ReadReq.mshrMisses::cpu.inst        19435                       # number of ReadReq MSHR misses (Count)
system.cpu.l1i.ReadReq.mshrMisses::total        19435                       # number of ReadReq MSHR misses (Count)
system.cpu.l1i.ReadReq.mshrMissLatency::cpu.inst   3903635740                       # number of ReadReq MSHR miss ticks (Tick)
system.cpu.l1i.ReadReq.mshrMissLatency::total   3903635740                       # number of ReadReq MSHR miss ticks (Tick)
system.cpu.l1i.ReadReq.mshrMissRate::cpu.inst     0.000155                       # mshr miss rate for ReadReq accesses (Ratio)
system.cpu.l1i.ReadReq.mshrMissRate::total     0.000155                       # mshr miss rate for ReadReq accesses (Ratio)
system.cpu.l1i.ReadReq.avgMshrMissLatency::cpu.inst 200855.968099                       # average ReadReq mshr miss latency ((Tick/Count))
system.cpu.l1i.ReadReq.avgMshrMissLatency::total 200855.968099                       # average ReadReq mshr miss latency ((Tick/Count))
system.cpu.l1i.power_state.pwrStateResidencyTicks::UNDEFINED 2221183482358                       # Cumulative time (in ticks) in various power states (Tick)
system.cpu.l1i.tags.tagsInUse               63.998036                       # Average ticks per tags in use ((Tick/Count))
system.cpu.l1i.tags.totalRefs                16732751                       # Total number of references to valid blocks. (Count)
system.cpu.l1i.tags.sampledRefs                 19371                       # Sample count of references to valid blocks. (Count)
system.cpu.l1i.tags.avgRefs                863.804192                       # Average number of references to valid blocks. ((Count/Count))
system.cpu.l1i.tags.warmupTick                 199995                       # The tick when the warmup percentage was hit. (Tick)
system.cpu.l1i.tags.occupancies::cpu.inst    63.998036                       # Average occupied blocks per tick, per requestor ((Count/Tick))
system.cpu.l1i.tags.avgOccs::cpu.inst        0.999969                       # Average percentage of cache occupancy ((Ratio/Tick))
system.cpu.l1i.tags.avgOccs::total           0.999969                       # Average percentage of cache occupancy ((Ratio/Tick))
system.cpu.l1i.tags.occupanciesTaskId::1024           64                       # Occupied blocks per task id (Count)
system.cpu.l1i.tags.ageTaskId_1024::0               3                       # Occupied blocks per task id, per block age (Count)
system.cpu.l1i.tags.ageTaskId_1024::1               2                       # Occupied blocks per task id, per block age (Count)
system.cpu.l1i.tags.ageTaskId_1024::3              10                       # Occupied blocks per task id, per block age (Count)
system.cpu.l1i.tags.ageTaskId_1024::4              49                       # Occupied blocks per task id, per block age (Count)
system.cpu.l1i.tags.ratioOccsTaskId::1024            1                       # Ratio of occupied blocks and all blocks, per task id (Ratio)
system.cpu.l1i.tags.tagAccesses             251567745                       # Number of tag accesses (Count)
system.cpu.l1i.tags.dataAccesses            251567745                       # Number of data accesses (Count)
system.cpu.l1i.tags.power_state.pwrStateResidencyTicks::UNDEFINED 2221183482358                       # Cumulative time (in ticks) in various power states (Tick)
system.cpu.mmu.dtb.rdAccesses                22129534                       # TLB accesses on read requests (Count)
system.cpu.mmu.dtb.wrAccesses                 9460375                       # TLB accesses on write requests (Count)
system.cpu.mmu.dtb.rdMisses                      1830                       # TLB misses on read requests (Count)
system.cpu.mmu.dtb.wrMisses                       491                       # TLB misses on write requests (Count)
system.cpu.mmu.dtb.walker.power_state.pwrStateResidencyTicks::UNDEFINED 2221183482358                       # Cumulative time (in ticks) in various power states (Tick)
system.cpu.mmu.itb.rdAccesses                       0                       # TLB accesses on read requests (Count)
system.cpu.mmu.itb.wrAccesses               125774269                       # TLB accesses on write requests (Count)
system.cpu.mmu.itb.rdMisses                         0                       # TLB misses on read requests (Count)
system.cpu.mmu.itb.wrMisses                       483                       # TLB misses on write requests (Count)
system.cpu.mmu.itb.walker.power_state.pwrStateResidencyTicks::UNDEFINED 2221183482358                       # Cumulative time (in ticks) in various power states (Tick)
system.cpu.power_state.pwrStateResidencyTicks::ON 2221183482358                       # Cumulative time (in ticks) in various power states (Tick)
system.cpu.thread_0.numInsts                        0                       # Number of Instructions committed (Count)
system.cpu.thread_0.numOps                          0                       # Number of Ops committed (Count)
system.cpu.thread_0.numMemRefs                      0                       # Number of Memory References (Count)
system.cpu.workload.numSyscalls                   156                       # Number of system calls (Count)
system.mem_ctrl.avgPriority_writebacks::samples    474443.00                       # Average QoS priority value for accepted requests (Count)
system.mem_ctrl.avgPriority_cpu.inst::samples     19435.00                       # Average QoS priority value for accepted requests (Count)
system.mem_ctrl.avgPriority_cpu.data::samples    569968.00                       # Average QoS priority value for accepted requests (Count)
system.mem_ctrl.priorityMinLatency       0.000000018750                       # per QoS priority minimum request to response latency (Second)
system.mem_ctrl.priorityMaxLatency       0.042152818654                       # per QoS priority maximum request to response latency (Second)
system.mem_ctrl.numReadWriteTurnArounds         26360                       # Number of turnarounds from READ to WRITE (Count)
system.mem_ctrl.numWriteReadTurnArounds         26360                       # Number of turnarounds from WRITE to READ (Count)
system.mem_ctrl.numStayReadState              2233290                       # Number of times bus staying in READ state (Count)
system.mem_ctrl.numStayWriteState              448868                       # Number of times bus staying in WRITE state (Count)
system.mem_ctrl.readReqs                       622468                       # Number of read requests accepted (Count)
system.mem_ctrl.writeReqs                      485291                       # Number of write requests accepted (Count)
system.mem_ctrl.readBursts                     622468                       # Number of controller read bursts, including those serviced by the write queue (Count)
system.mem_ctrl.writeBursts                    485291                       # Number of controller write bursts, including those merged in the write queue (Count)
system.mem_ctrl.servicedByWrQ                   33065                       # Number of controller read bursts serviced by the write queue (Count)
system.mem_ctrl.mergedWrBursts                  10848                       # Number of controller write bursts merged with an existing one (Count)
system.mem_ctrl.neitherReadNorWriteReqs             0                       # Number of requests that are neither read nor write (Count)
system.mem_ctrl.avgRdQLen                        1.00                       # Average read queue length when enqueuing ((Count/Tick))
system.mem_ctrl.avgWrQLen                       24.51                       # Average write queue length when enqueuing ((Count/Tick))
system.mem_ctrl.numRdRetry                          0                       # Number of times read queue was full causing retry (Count)
system.mem_ctrl.numWrRetry                          0                       # Number of times write queue was full causing retry (Count)
system.mem_ctrl.readPktSize::0                      0                       # Read request sizes (log2) (Count)
system.mem_ctrl.readPktSize::1                      0                       # Read request sizes (log2) (Count)
system.mem_ctrl.readPktSize::2                      0                       # Read request sizes (log2) (Count)
system.mem_ctrl.readPktSize::3                      0                       # Read request sizes (log2) (Count)
system.mem_ctrl.readPktSize::4                      0                       # Read request sizes (log2) (Count)
system.mem_ctrl.readPktSize::5                      0                       # Read request sizes (log2) (Count)
system.mem_ctrl.readPktSize::6                 622468                       # Read request sizes (log2) (Count)
system.mem_ctrl.writePktSize::0                     0                       # Write request sizes (log2) (Count)
system.mem_ctrl.writePktSize::1                     0                       # Write request sizes (log2) (Count)
system.mem_ctrl.writePktSize::2                     0                       # Write request sizes (log2) (Count)
system.mem_ctrl.writePktSize::3                     0                       # Write request sizes (log2) (Count)
system.mem_ctrl.writePktSize::4                     0                       # Write request sizes (log2) (Count)
system.mem_ctrl.writePktSize::5                     0                       # Write request sizes (log2) (Count)
system.mem_ctrl.writePktSize::6                485291                       # Write request sizes (log2) (Count)
system.mem_ctrl.rdQLenPdf::0                   589395                       # What read queue length does an incoming req see (Count)
system.mem_ctrl.rdQLenPdf::1                        8                       # What read queue length does an incoming req see (Count)
system.mem_ctrl.rdQLenPdf::2                        0                       # What read queue length does an incoming req see (Count)
system.mem_ctrl.rdQLenPdf::3                        0                       # What read queue length does an incoming req see (Count)
system.mem_ctrl.rdQLenPdf::4                        0                       # What read queue length does an incoming req see (Count)
system.mem_ctrl.rdQLenPdf::5                        0                       # What read queue length does an incoming req see (Count)
system.mem_ctrl.rdQLenPdf::6                        0                       # What read queue length does an incoming req see (Count)
system.mem_ctrl.rdQLenPdf::7                        0                       # What read queue length does an incoming req see (Count)
system.mem_ctrl.rdQLenPdf::8                        0                       # What read queue length does an incoming req see (Count)
system.mem_ctrl.rdQLenPdf::9                        0                       # What read queue length does an incoming req see (Count)
system.mem_ctrl.rdQLenPdf::10                       0                       # What read queue length does an incoming req see (Count)
system.mem_ctrl.rdQLenPdf::11                       0                       # What read queue length does an incoming req see (Count)
system.mem_ctrl.rdQLenPdf::12                       0                       # What read queue length does an incoming req see (Count)
system.mem_ctrl.rdQLenPdf::13                       0                       # What read queue length does an incoming req see (Count)
system.mem_ctrl.rdQLenPdf::14                       0                       # What read queue length does an incoming req see (Count)
system.mem_ctrl.rdQLenPdf::15                       0                       # What read queue length does an incoming req see (Count)
system.mem_ctrl.rdQLenPdf::16                       0                       # What read queue length does an incoming req see (Count)
system.mem_ctrl.rdQLenPdf::17                       0                       # What read queue length does an incoming req see (Count)
system.mem_ctrl.rdQLenPdf::18                       0                       # What read queue length does an incoming req see (Count)
system.mem_ctrl.rdQLenPdf::19                       0                       # What read queue length does an incoming req see (Count)
system.mem_ctrl.rdQLenPdf::20                       0                       # What read queue length does an incoming req see (Count)
system.mem_ctrl.rdQLenPdf::21                       0                       # What read queue length does an incoming req see (Count)
system.mem_ctrl.rdQLenPdf::22                       0                       # What read queue length does an incoming req see (Count)
system.mem_ctrl.rdQLenPdf::23                       0                       # What read queue length does an incoming req see (Count)
system.mem_ctrl.rdQLenPdf::24                       0                       # What read queue length does an incoming req see (Count)
system.mem_ctrl.rdQLenPdf::25                       0                       # What read queue length does an incoming req see (Count)
system.mem_ctrl.rdQLenPdf::26                       0                       # What read queue length does an incoming req see (Count)
system.mem_ctrl.rdQLenPdf::27                       0                       # What read queue length does an incoming req see (Count)
system.mem_ctrl.rdQLenPdf::28                       0                       # What read queue length does an incoming req see (Count)
system.mem_ctrl.rdQLenPdf::29                       0                       # What read queue length does an incoming req see (Count)
system.mem_ctrl.rdQLenPdf::30                       0                       # What read queue length does an incoming req see (Count)
system.mem_ctrl.rdQLenPdf::31                       0                       # What read queue length does an incoming req see (Count)
system.mem_ctrl.wrQLenPdf::0                        1                       # What write queue length does an incoming req see (Count)
system.mem_ctrl.wrQLenPdf::1                        1                       # What write queue length does an incoming req see (Count)
system.mem_ctrl.wrQLenPdf::2                        1                       # What write queue length does an incoming req see (Count)
system.mem_ctrl.wrQLenPdf::3                        1                       # What write queue length does an incoming req see (Count)
system.mem_ctrl.wrQLenPdf::4                        1                       # What write queue length does an incoming req see (Count)
system.mem_ctrl.wrQLenPdf::5                        1                       # What write queue length does an incoming req see (Count)
system.mem_ctrl.wrQLenPdf::6                        1                       # What write queue length does an incoming req see (Count)
system.mem_ctrl.wrQLenPdf::7                        1                       # What write queue length does an incoming req see (Count)
system.mem_ctrl.wrQLenPdf::8                        1                       # What write queue length does an incoming req see (Count)
system.mem_ctrl.wrQLenPdf::9                        1                       # What write queue length does an incoming req see (Count)
system.mem_ctrl.wrQLenPdf::10                       1                       # What write queue length does an incoming req see (Count)
system.mem_ctrl.wrQLenPdf::11                       1                       # What write queue length does an incoming req see (Count)
system.mem_ctrl.wrQLenPdf::12                       1                       # What write queue length does an incoming req see (Count)
system.mem_ctrl.wrQLenPdf::13                       1                       # What write queue length does an incoming req see (Count)
system.mem_ctrl.wrQLenPdf::14                       1                       # What write queue length does an incoming req see (Count)
system.mem_ctrl.wrQLenPdf::15                   26323                       # What write queue length does an incoming req see (Count)
system.mem_ctrl.wrQLenPdf::16                   26343                       # What write queue length does an incoming req see (Count)
system.mem_ctrl.wrQLenPdf::17                   26361                       # What write queue length does an incoming req see (Count)
system.mem_ctrl.wrQLenPdf::18                   26361                       # What write queue length does an incoming req see (Count)
system.mem_ctrl.wrQLenPdf::19                   26360                       # What write queue length does an incoming req see (Count)
system.mem_ctrl.wrQLenPdf::20                   26360                       # What write queue length does an incoming req see (Count)
system.mem_ctrl.wrQLenPdf::21                   26360                       # What write queue length does an incoming req see (Count)
system.mem_ctrl.wrQLenPdf::22                   26360                       # What write queue length does an incoming req see (Count)
system.mem_ctrl.wrQLenPdf::23                   26360                       # What write queue length does an incoming req see (Count)
system.mem_ctrl.wrQLenPdf::24                   26360                       # What write queue length does an incoming req see (Count)
system.mem_ctrl.wrQLenPdf::25                   26360                       # What write queue length does an incoming req see (Count)
system.mem_ctrl.wrQLenPdf::26                   26360                       # What write queue length does an incoming req see (Count)
system.mem_ctrl.wrQLenPdf::27                   26360                       # What write queue length does an incoming req see (Count)
system.mem_ctrl.wrQLenPdf::28                   26360                       # What write queue length does an incoming req see (Count)
system.mem_ctrl.wrQLenPdf::29                   26360                       # What write queue length does an incoming req see (Count)
system.mem_ctrl.wrQLenPdf::30                   26360                       # What write queue length does an incoming req see (Count)
system.mem_ctrl.wrQLenPdf::31                   26360                       # What write queue length does an incoming req see (Count)
system.mem_ctrl.wrQLenPdf::32                   26360                       # What write queue length does an incoming req see (Count)
system.mem_ctrl.wrQLenPdf::33                       0                       # What write queue length does an incoming req see (Count)
system.mem_ctrl.wrQLenPdf::34                       0                       # What write queue length does an incoming req see (Count)
system.mem_ctrl.wrQLenPdf::35                       0                       # What write queue length does an incoming req see (Count)
system.mem_ctrl.wrQLenPdf::36                       0                       # What write queue length does an incoming req see (Count)
system.mem_ctrl.wrQLenPdf::37                       0                       # What write queue length does an incoming req see (Count)
system.mem_ctrl.wrQLenPdf::38                       0                       # What write queue length does an incoming req see (Count)
system.mem_ctrl.wrQLenPdf::39                       0                       # What write queue length does an incoming req see (Count)
system.mem_ctrl.wrQLenPdf::40                       0                       # What write queue length does an incoming req see (Count)
system.mem_ctrl.wrQLenPdf::41                       0                       # What write queue length does an incoming req see (Count)
system.mem_ctrl.wrQLenPdf::42                       0                       # What write queue length does an incoming req see (Count)
system.mem_ctrl.wrQLenPdf::43                       0                       # What write queue length does an incoming req see (Count)
system.mem_ctrl.wrQLenPdf::44                       0                       # What write queue length does an incoming req see (Count)
system.mem_ctrl.wrQLenPdf::45                       0                       # What write queue length does an incoming req see (Count)
system.mem_ctrl.wrQLenPdf::46                       0                       # What write queue length does an incoming req see (Count)
system.mem_ctrl.wrQLenPdf::47                       0                       # What write queue length does an incoming req see (Count)
system.mem_ctrl.wrQLenPdf::48                       0                       # What write queue length does an incoming req see (Count)
system.mem_ctrl.wrQLenPdf::49                       0                       # What write queue length does an incoming req see (Count)
system.mem_ctrl.wrQLenPdf::50                       0                       # What write queue length does an incoming req see (Count)
system.mem_ctrl.wrQLenPdf::51                       0                       # What write queue length does an incoming req see (Count)
system.mem_ctrl.wrQLenPdf::52                       0                       # What write queue length does an incoming req see (Count)
system.mem_ctrl.wrQLenPdf::53                       0                       # What write queue length does an incoming req see (Count)
system.mem_ctrl.wrQLenPdf::54                       0                       # What write queue length does an incoming req see (Count)
system.mem_ctrl.wrQLenPdf::55                       0                       # What write queue length does an incoming req see (Count)
system.mem_ctrl.wrQLenPdf::56                       0                       # What write queue length does an incoming req see (Count)
system.mem_ctrl.wrQLenPdf::57                       0                       # What write queue length does an incoming req see (Count)
system.mem_ctrl.wrQLenPdf::58                       0                       # What write queue length does an incoming req see (Count)
system.mem_ctrl.wrQLenPdf::59                       0                       # What write queue length does an incoming req see (Count)
system.mem_ctrl.wrQLenPdf::60                       0                       # What write queue length does an incoming req see (Count)
system.mem_ctrl.wrQLenPdf::61                       0                       # What write queue length does an incoming req see (Count)
system.mem_ctrl.wrQLenPdf::62                       0                       # What write queue length does an incoming req see (Count)
system.mem_ctrl.wrQLenPdf::63                       0                       # What write queue length does an incoming req see (Count)
system.mem_ctrl.rdPerTurnAround::samples        26360                       # Reads before turning the bus around for writes (Count)
system.mem_ctrl.rdPerTurnAround::mean       22.359181                       # Reads before turning the bus around for writes (Count)
system.mem_ctrl.rdPerTurnAround::gmean      19.515290                       # Reads before turning the bus around for writes (Count)
system.mem_ctrl.rdPerTurnAround::stdev      35.266042                       # Reads before turning the bus around for writes (Count)
system.mem_ctrl.rdPerTurnAround::0-127          26221     99.47%     99.47% # Reads before turning the bus around for writes (Count)
system.mem_ctrl.rdPerTurnAround::128-255           54      0.20%     99.68% # Reads before turning the bus around for writes (Count)
system.mem_ctrl.rdPerTurnAround::256-383           47      0.18%     99.86% # Reads before turning the bus around for writes (Count)
system.mem_ctrl.rdPerTurnAround::384-511           17      0.06%     99.92% # Reads before turning the bus around for writes (Count)
system.mem_ctrl.rdPerTurnAround::512-639            9      0.03%     99.95% # Reads before turning the bus around for writes (Count)
system.mem_ctrl.rdPerTurnAround::640-767            5      0.02%     99.97% # Reads before turning the bus around for writes (Count)
system.mem_ctrl.rdPerTurnAround::768-895            2      0.01%     99.98% # Reads before turning the bus around for writes (Count)
system.mem_ctrl.rdPerTurnAround::896-1023            1      0.00%     99.98% # Reads before turning the bus around for writes (Count)
system.mem_ctrl.rdPerTurnAround::1024-1151            1      0.00%     99.99% # Reads before turning the bus around for writes (Count)
system.mem_ctrl.rdPerTurnAround::1280-1407            1      0.00%     99.99% # Reads before turning the bus around for writes (Count)
system.mem_ctrl.rdPerTurnAround::2048-2175            1      0.00%    100.00% # Reads before turning the bus around for writes (Count)
system.mem_ctrl.rdPerTurnAround::2688-2815            1      0.00%    100.00% # Reads before turning the bus around for writes (Count)
system.mem_ctrl.rdPerTurnAround::total          26360                       # Reads before turning the bus around for writes (Count)
system.mem_ctrl.wrPerTurnAround::samples        26360                       # Writes before turning the bus around for reads (Count)
system.mem_ctrl.wrPerTurnAround::mean       17.997914                       # Writes before turning the bus around for reads (Count)
system.mem_ctrl.wrPerTurnAround::gmean      17.997782                       # Writes before turning the bus around for reads (Count)
system.mem_ctrl.wrPerTurnAround::stdev       0.066591                       # Writes before turning the bus around for reads (Count)
system.mem_ctrl.wrPerTurnAround::16                24      0.09%      0.09% # Writes before turning the bus around for reads (Count)
system.mem_ctrl.wrPerTurnAround::17                14      0.05%      0.14% # Writes before turning the bus around for reads (Count)
system.mem_ctrl.wrPerTurnAround::18             26315     99.83%     99.97% # Writes before turning the bus around for reads (Count)
system.mem_ctrl.wrPerTurnAround::19                 7      0.03%    100.00% # Writes before turning the bus around for reads (Count)
system.mem_ctrl.wrPerTurnAround::total          26360                       # Writes before turning the bus around for reads (Count)
system.mem_ctrl.bytesReadWrQ                  2116160                       # Total number of bytes read from write queue (Byte)
system.mem_ctrl.bytesReadSys                 39837952                       # Total read bytes from the system interface side (Byte)
system.mem_ctrl.bytesWrittenSys              31058624                       # Total written bytes from the system interface side (Byte)
system.mem_ctrl.avgRdBWSys               17935462.02572521                       # Average system read bandwidth in Byte/s ((Byte/Second))
system.mem_ctrl.avgWrBWSys               13982916.87592971                       # Average system write bandwidth in Byte/s ((Byte/Second))
system.mem_ctrl.totGap                   2221183269030                       # Total gap between requests (Tick)
system.mem_ctrl.avgGap                     2005114.17                       # Average gap between requests ((Tick/Count))
system.mem_ctrl.requestorReadBytes::cpu.inst      1243840                       # Per-requestor bytes read from memory (Byte)
system.mem_ctrl.requestorReadBytes::cpu.data     36477952                       # Per-requestor bytes read from memory (Byte)
system.mem_ctrl.requestorWriteBytes::writebacks     30363200                       # Per-requestor bytes write to memory (Byte)
system.mem_ctrl.requestorReadRate::cpu.inst 559989.757658176008                       # Per-requestor bytes read from memory rate ((Byte/Second))
system.mem_ctrl.requestorReadRate::cpu.data 16422754.936604849994                       # Per-requestor bytes read from memory rate ((Byte/Second))
system.mem_ctrl.requestorWriteRate::writebacks 13669829.728684341535                       # Per-requestor bytes write to memory rate ((Byte/Second))
system.mem_ctrl.requestorReadAccesses::cpu.inst        19435                       # Per-requestor read serviced memory accesses (Count)
system.mem_ctrl.requestorReadAccesses::cpu.data       603033                       # Per-requestor read serviced memory accesses (Count)
system.mem_ctrl.requestorWriteAccesses::writebacks       485291                       # Per-requestor write serviced memory accesses (Count)
system.mem_ctrl.requestorReadTotalLat::cpu.inst    620145654                       # Per-requestor read total memory access latency (Tick)
system.mem_ctrl.requestorReadTotalLat::cpu.data  17038075589                       # Per-requestor read total memory access latency (Tick)
system.mem_ctrl.requestorWriteTotalLat::writebacks 52250025327220                       # Per-requestor write total memory access latency (Tick)
system.mem_ctrl.requestorReadAvgLat::cpu.inst     31908.70                       # Per-requestor read average memory access latency ((Tick/Count))
system.mem_ctrl.requestorReadAvgLat::cpu.data     28253.97                       # Per-requestor read average memory access latency ((Tick/Count))
system.mem_ctrl.requestorWriteAvgLat::writebacks 107667410.54                       # Per-requestor write average memory access latency ((Tick/Count))
system.mem_ctrl.dram.bytesRead::cpu.inst      1243840                       # Number of bytes read from this memory (Byte)
system.mem_ctrl.dram.bytesRead::cpu.data     38594112                       # Number of bytes read from this memory (Byte)
system.mem_ctrl.dram.bytesRead::total        39837952                       # Number of bytes read from this memory (Byte)
system.mem_ctrl.dram.bytesInstRead::cpu.inst      1243840                       # Number of instructions bytes read from this memory (Byte)
system.mem_ctrl.dram.bytesInstRead::total      1243840                       # Number of instructions bytes read from this memory (Byte)
system.mem_ctrl.dram.bytesWritten::writebacks     31058624                       # Number of bytes written to this memory (Byte)
system.mem_ctrl.dram.bytesWritten::total     31058624                       # Number of bytes written to this memory (Byte)
system.mem_ctrl.dram.numReads::cpu.inst         19435                       # Number of read requests responded to by this memory (Count)
system.mem_ctrl.dram.numReads::cpu.data        603033                       # Number of read requests responded to by this memory (Count)
system.mem_ctrl.dram.numReads::total           622468                       # Number of read requests responded to by this memory (Count)
system.mem_ctrl.dram.numWrites::writebacks       485291                       # Number of write requests responded to by this memory (Count)
system.mem_ctrl.dram.numWrites::total          485291                       # Number of write requests responded to by this memory (Count)
system.mem_ctrl.dram.bwRead::cpu.inst          559990                       # Total read bandwidth from this memory ((Byte/Second))
system.mem_ctrl.dram.bwRead::cpu.data        17375472                       # Total read bandwidth from this memory ((Byte/Second))
system.mem_ctrl.dram.bwRead::total           17935462                       # Total read bandwidth from this memory ((Byte/Second))
system.mem_ctrl.dram.bwInstRead::cpu.inst       559990                       # Instruction read bandwidth from this memory ((Byte/Second))
system.mem_ctrl.dram.bwInstRead::total         559990                       # Instruction read bandwidth from this memory ((Byte/Second))
system.mem_ctrl.dram.bwWrite::writebacks     13982917                       # Write bandwidth from this memory ((Byte/Second))
system.mem_ctrl.dram.bwWrite::total          13982917                       # Write bandwidth from this memory ((Byte/Second))
system.mem_ctrl.dram.bwTotal::writebacks     13982917                       # Total bandwidth to/from this memory ((Byte/Second))
system.mem_ctrl.dram.bwTotal::cpu.inst         559990                       # Total bandwidth to/from this memory ((Byte/Second))
system.mem_ctrl.dram.bwTotal::cpu.data       17375472                       # Total bandwidth to/from this memory ((Byte/Second))
system.mem_ctrl.dram.bwTotal::total          31918379                       # Total bandwidth to/from this memory ((Byte/Second))
system.mem_ctrl.dram.readBursts                589403                       # Number of DRAM read bursts (Count)
system.mem_ctrl.dram.writeBursts               474425                       # Number of DRAM write bursts (Count)
system.mem_ctrl.dram.perBankRdBursts::0         37614                       # Per bank write bursts (Count)
system.mem_ctrl.dram.perBankRdBursts::1         41107                       # Per bank write bursts (Count)
system.mem_ctrl.dram.perBankRdBursts::2         22801                       # Per bank write bursts (Count)
system.mem_ctrl.dram.perBankRdBursts::3         26498                       # Per bank write bursts (Count)
system.mem_ctrl.dram.perBankRdBursts::4         42855                       # Per bank write bursts (Count)
system.mem_ctrl.dram.perBankRdBursts::5         39835                       # Per bank write bursts (Count)
system.mem_ctrl.dram.perBankRdBursts::6         46019                       # Per bank write bursts (Count)
system.mem_ctrl.dram.perBankRdBursts::7         40118                       # Per bank write bursts (Count)
system.mem_ctrl.dram.perBankRdBursts::8         48061                       # Per bank write bursts (Count)
system.mem_ctrl.dram.perBankRdBursts::9         28963                       # Per bank write bursts (Count)
system.mem_ctrl.dram.perBankRdBursts::10        35552                       # Per bank write bursts (Count)
system.mem_ctrl.dram.perBankRdBursts::11        39513                       # Per bank write bursts (Count)
system.mem_ctrl.dram.perBankRdBursts::12        34247                       # Per bank write bursts (Count)
system.mem_ctrl.dram.perBankRdBursts::13        36665                       # Per bank write bursts (Count)
system.mem_ctrl.dram.perBankRdBursts::14        34220                       # Per bank write bursts (Count)
system.mem_ctrl.dram.perBankRdBursts::15        35335                       # Per bank write bursts (Count)
system.mem_ctrl.dram.perBankWrBursts::0         34369                       # Per bank write bursts (Count)
system.mem_ctrl.dram.perBankWrBursts::1         32815                       # Per bank write bursts (Count)
system.mem_ctrl.dram.perBankWrBursts::2         11826                       # Per bank write bursts (Count)
system.mem_ctrl.dram.perBankWrBursts::3         13623                       # Per bank write bursts (Count)
system.mem_ctrl.dram.perBankWrBursts::4         32609                       # Per bank write bursts (Count)
system.mem_ctrl.dram.perBankWrBursts::5         30937                       # Per bank write bursts (Count)
system.mem_ctrl.dram.perBankWrBursts::6         34004                       # Per bank write bursts (Count)
system.mem_ctrl.dram.perBankWrBursts::7         31011                       # Per bank write bursts (Count)
system.mem_ctrl.dram.perBankWrBursts::8         30275                       # Per bank write bursts (Count)
system.mem_ctrl.dram.perBankWrBursts::9         25508                       # Per bank write bursts (Count)
system.mem_ctrl.dram.perBankWrBursts::10        34279                       # Per bank write bursts (Count)
system.mem_ctrl.dram.perBankWrBursts::11        34056                       # Per bank write bursts (Count)
system.mem_ctrl.dram.perBankWrBursts::12        31417                       # Per bank write bursts (Count)
system.mem_ctrl.dram.perBankWrBursts::13        35137                       # Per bank write bursts (Count)
system.mem_ctrl.dram.perBankWrBursts::14        31575                       # Per bank write bursts (Count)
system.mem_ctrl.dram.perBankWrBursts::15        30984                       # Per bank write bursts (Count)
system.mem_ctrl.dram.totQLat               6606914993                       # Total ticks spent queuing (Tick)
system.mem_ctrl.dram.totBusLat             2947015000                       # Total ticks spent in databus transfers (Tick)
system.mem_ctrl.dram.totMemAccLat         17658221243                       # Total ticks spent from burst creation until serviced by the DRAM (Tick)
system.mem_ctrl.dram.avgQLat                 11209.50                       # Average queueing delay per DRAM burst ((Tick/Count))
system.mem_ctrl.dram.avgBusLat                5000.00                       # Average bus latency per DRAM burst ((Tick/Count))
system.mem_ctrl.dram.avgMemAccLat            29959.50                       # Average memory access latency per DRAM burst ((Tick/Count))
system.mem_ctrl.dram.readRowHits               318059                       # Number of row buffer hits during reads (Count)
system.mem_ctrl.dram.writeRowHits              437355                       # Number of row buffer hits during writes (Count)
system.mem_ctrl.dram.readRowHitRate             53.96                       # Row buffer hit rate for reads (Ratio)
system.mem_ctrl.dram.writeRowHitRate            92.19                       # Row buffer hit rate for writes (Ratio)
system.mem_ctrl.dram.bytesPerActivate::samples       308405                       # Bytes accessed per row activation (Byte)
system.mem_ctrl.dram.bytesPerActivate::mean   220.762595                       # Bytes accessed per row activation (Byte)
system.mem_ctrl.dram.bytesPerActivate::gmean   140.722363                       # Bytes accessed per row activation (Byte)
system.mem_ctrl.dram.bytesPerActivate::stdev   256.802832                       # Bytes accessed per row activation (Byte)
system.mem_ctrl.dram.bytesPerActivate::0-127       132494     42.96%     42.96% # Bytes accessed per row activation (Byte)
[...]
system.mem_ctrl.dram.bwRead::cpu.data        15642257                       # Total read bandwidth from this memory ((Byte/Second))
system.mem_ctrl.dram.bwRead::total          101995536                       # Total read bandwidth from this memory ((Byte/Second))
system.mem_ctrl.dram.bwInstRead::cpu.inst     86353278                       # Instruction read bandwidth from this memory ((Byte/Second))
system.mem_ctrl.dram.bwInstRead::total       86353278                       # Instruction read bandwidth from this memory ((Byte/Second))
system.mem_ctrl.dram.bwWrite::writebacks      4478457                       # Write bandwidth from this memory ((Byte/Second))
system.mem_ctrl.dram.bwWrite::total           4478457                       # Write bandwidth from this memory ((Byte/Second))
system.mem_ctrl.dram.bwTotal::writebacks      4478457                       # Total bandwidth to/from this memory ((Byte/Second))
system.mem_ctrl.dram.bwTotal::cpu.inst       86353278                       # Total bandwidth to/from this memory ((Byte/Second))
system.mem_ctrl.dram.bwTotal::cpu.data       15642257                       # Total bandwidth to/from this memory ((Byte/Second))
system.mem_ctrl.dram.bwTotal::total         106473993                       # Total bandwidth to/from this memory ((Byte/Second))
system.mem_ctrl.dram.readBursts                800799                       # Number of DRAM read bursts (Count)
system.mem_ctrl.dram.writeBursts                21478                       # Number of DRAM write bursts (Count)
system.mem_ctrl.dram.perBankRdBursts::0         27408                       # Per bank write bursts (Count)
system.mem_ctrl.dram.perBankRdBursts::1         20422                       # Per bank write bursts (Count)
system.mem_ctrl.dram.perBankRdBursts::2          3930                       # Per bank write bursts (Count)
system.mem_ctrl.dram.perBankRdBursts::3          5347                       # Per bank write bursts (Count)
system.mem_ctrl.dram.perBankRdBursts::4         54080                       # Per bank write bursts (Count)
system.mem_ctrl.dram.perBankRdBursts::5        266696                       # Per bank write bursts (Count)
system.mem_ctrl.dram.perBankRdBursts::6          4749                       # Per bank write bursts (Count)
system.mem_ctrl.dram.perBankRdBursts::7        102949                       # Per bank write bursts (Count)
system.mem_ctrl.dram.perBankRdBursts::8         70958                       # Per bank write bursts (Count)
system.mem_ctrl.dram.perBankRdBursts::9          4309                       # Per bank write bursts (Count)
system.mem_ctrl.dram.perBankRdBursts::10         4049                       # Per bank write bursts (Count)
system.mem_ctrl.dram.perBankRdBursts::11         3712                       # Per bank write bursts (Count)
system.mem_ctrl.dram.perBankRdBursts::12        52643                       # Per bank write bursts (Count)
system.mem_ctrl.dram.perBankRdBursts::13        72465                       # Per bank write bursts (Count)
system.mem_ctrl.dram.perBankRdBursts::14       101256                       # Per bank write bursts (Count)
system.mem_ctrl.dram.perBankRdBursts::15         5826                       # Per bank write bursts (Count)
system.mem_ctrl.dram.perBankWrBursts::0          2056                       # Per bank write bursts (Count)
system.mem_ctrl.dram.perBankWrBursts::1          1611                       # Per bank write bursts (Count)
system.mem_ctrl.dram.perBankWrBursts::2          1303                       # Per bank write bursts (Count)
system.mem_ctrl.dram.perBankWrBursts::3          1279                       # Per bank write bursts (Count)
system.mem_ctrl.dram.perBankWrBursts::4          1417                       # Per bank write bursts (Count)
system.mem_ctrl.dram.perBankWrBursts::5          1378                       # Per bank write bursts (Count)
system.mem_ctrl.dram.perBankWrBursts::6          1357                       # Per bank write bursts (Count)
system.mem_ctrl.dram.perBankWrBursts::7          1355                       # Per bank write bursts (Count)
system.mem_ctrl.dram.perBankWrBursts::8          1385                       # Per bank write bursts (Count)
system.mem_ctrl.dram.perBankWrBursts::9          1179                       # Per bank write bursts (Count)
system.mem_ctrl.dram.perBankWrBursts::10         1320                       # Per bank write bursts (Count)
system.mem_ctrl.dram.perBankWrBursts::11         1235                       # Per bank write bursts (Count)
system.mem_ctrl.dram.perBankWrBursts::12         1229                       # Per bank write bursts (Count)
system.mem_ctrl.dram.perBankWrBursts::13         1016                       # Per bank write bursts (Count)
system.mem_ctrl.dram.perBankWrBursts::14          970                       # Per bank write bursts (Count)
system.mem_ctrl.dram.perBankWrBursts::15         1388                       # Per bank write bursts (Count)
system.mem_ctrl.dram.totQLat               8641373129                       # Total ticks spent queuing (Tick)
system.mem_ctrl.dram.totBusLat             4003995000                       # Total ticks spent in databus transfers (Tick)
system.mem_ctrl.dram.totMemAccLat         23656354379                       # Total ticks spent from burst creation until serviced by the DRAM (Tick)
system.mem_ctrl.dram.avgQLat                 10790.94                       # Average queueing delay per DRAM burst ((Tick/Count))
system.mem_ctrl.dram.avgBusLat                5000.00                       # Average bus latency per DRAM burst ((Tick/Count))
system.mem_ctrl.dram.avgMemAccLat            29540.94                       # Average memory access latency per DRAM burst ((Tick/Count))
system.mem_ctrl.dram.readRowHits               487812                       # Number of row buffer hits during reads (Count)
system.mem_ctrl.dram.writeRowHits               19349                       # Number of row buffer hits during writes (Count)
system.mem_ctrl.dram.readRowHitRate             60.92                       # Row buffer hit rate for reads (Ratio)
system.mem_ctrl.dram.writeRowHitRate            90.09                       # Row buffer hit rate for writes (Ratio)
system.mem_ctrl.dram.bytesPerActivate::samples       315116                       # Bytes accessed per row activation (Byte)
system.mem_ctrl.dram.bytesPerActivate::mean   167.003491                       # Bytes accessed per row activation (Byte)
system.mem_ctrl.dram.bytesPerActivate::gmean   128.668512                       # Bytes accessed per row activation (Byte)
system.mem_ctrl.dram.bytesPerActivate::stdev   135.083022                       # Bytes accessed per row activation (Byte)
system.mem_ctrl.dram.bytesPerActivate::0-127       141630     44.95%     44.95% # Bytes accessed per row activation (Byte)
system.mem_ctrl.dram.bytesPerActivate::128-255       101808     32.31%     77.25% # Bytes accessed per row activation (Byte)
system.mem_ctrl.dram.bytesPerActivate::256-383        42283     13.42%     90.67% # Bytes accessed per row activation (Byte)
system.mem_ctrl.dram.bytesPerActivate::384-511        16678      5.29%     95.96% # Bytes accessed per row activation (Byte)
system.mem_ctrl.dram.bytesPerActivate::512-639        10351      3.28%     99.25% # Bytes accessed per row activation (Byte)
system.mem_ctrl.dram.bytesPerActivate::640-767          421      0.13%     99.38% # Bytes accessed per row activation (Byte)
system.mem_ctrl.dram.bytesPerActivate::768-895          468      0.15%     99.53% # Bytes accessed per row activation (Byte)
system.mem_ctrl.dram.bytesPerActivate::896-1023          213      0.07%     99.60% # Bytes accessed per row activation (Byte)
system.mem_ctrl.dram.bytesPerActivate::1024-1151         1264      0.40%    100.00% # Bytes accessed per row activation (Byte)
system.mem_ctrl.dram.bytesPerActivate::total       315116                       # Bytes accessed per row activation (Byte)
system.mem_ctrl.dram.dramBytesRead           51251136                       # Total bytes read (Byte)
system.mem_ctrl.dram.dramBytesWritten         1374592                       # Total bytes written (Byte)
system.mem_ctrl.dram.avgRdBW                99.998436                       # Average DRAM read bandwidth in MiBytes/s ((Byte/Second))
system.mem_ctrl.dram.avgWrBW                 2.682029                       # Average DRAM write bandwidth in MiBytes/s ((Byte/Second))
system.mem_ctrl.dram.peakBW                  12800.00                       # Theoretical peak bandwidth in MiByte/s ((Byte/Second))
system.mem_ctrl.dram.busUtil                     0.80                       # Data bus utilization in percentage (Ratio)
system.mem_ctrl.dram.busUtilRead                 0.78                       # Data bus utilization in percentage for reads (Ratio)
system.mem_ctrl.dram.busUtilWrite                0.02                       # Data bus utilization in percentage for writes (Ratio)
system.mem_ctrl.dram.pageHitRate                61.68                       # Row buffer hit rate, read and write combined (Ratio)
system.mem_ctrl.dram.power_state.pwrStateResidencyTicks::UNDEFINED 512519373362                       # Cumulative time (in ticks) in various power states (Tick)
system.mem_ctrl.dram.rank0.actEnergy       1163106000                       # Energy for activate commands per rank (pJ) (Joule)
system.mem_ctrl.dram.rank0.preEnergy        618205500                       # Energy for precharge commands per rank (pJ) (Joule)
system.mem_ctrl.dram.rank0.readEnergy      3467048340                       # Energy for read commands per rank (pJ) (Joule)
system.mem_ctrl.dram.rank0.writeEnergy       61366320                       # Energy for write commands per rank (pJ) (Joule)
system.mem_ctrl.dram.rank0.refreshEnergy 40457448720.000008                       # Energy for refresh commands per rank (pJ) (Joule)
system.mem_ctrl.dram.rank0.actBackEnergy 196673312430                       # Energy for active background per rank (pJ) (Joule)
system.mem_ctrl.dram.rank0.preBackEnergy  31187807520                       # Energy for precharge background per rank (pJ) (Joule)
system.mem_ctrl.dram.rank0.actPowerDownEnergy            0                       # Energy for active power-down per rank (pJ) (Joule)
system.mem_ctrl.dram.rank0.prePowerDownEnergy            0                       # Energy for precharge power-down per rank (pJ) (Joule)
system.mem_ctrl.dram.rank0.selfRefreshEnergy            0                       # Energy for self refresh per rank (pJ) (Joule)
system.mem_ctrl.dram.rank0.totalEnergy   273628294830                       # Total energy per rank (pJ) (Joule)
system.mem_ctrl.dram.rank0.averagePower    533.888686                       # Core power per rank (mW) (Watt)
system.mem_ctrl.dram.rank0.totalIdleTime            0                       # Total Idle time Per DRAM Rank (Tick)
system.mem_ctrl.dram.rank0.pwrStateTime::IDLE  79380300903                       # Time in different power states (Tick)
system.mem_ctrl.dram.rank0.pwrStateTime::REF  17113980000                       # Time in different power states (Tick)
system.mem_ctrl.dram.rank0.pwrStateTime::SREF            0                       # Time in different power states (Tick)
system.mem_ctrl.dram.rank0.pwrStateTime::PRE_PDN            0                       # Time in different power states (Tick)
system.mem_ctrl.dram.rank0.pwrStateTime::ACT 416025092459                       # Time in different power states (Tick)
system.mem_ctrl.dram.rank0.pwrStateTime::ACT_PDN            0                       # Time in different power states (Tick)
system.mem_ctrl.dram.rank1.actEnergy       1086822240                       # Energy for activate commands per rank (pJ) (Joule)
system.mem_ctrl.dram.rank1.preEnergy        577659720                       # Energy for precharge commands per rank (pJ) (Joule)
system.mem_ctrl.dram.rank1.readEnergy      2250656520                       # Energy for read commands per rank (pJ) (Joule)
system.mem_ctrl.dram.rank1.writeEnergy       50748840                       # Energy for write commands per rank (pJ) (Joule)
system.mem_ctrl.dram.rank1.refreshEnergy 40457448720.000008                       # Energy for refresh commands per rank (pJ) (Joule)
system.mem_ctrl.dram.rank1.actBackEnergy 181275749670                       # Energy for active background per rank (pJ) (Joule)
system.mem_ctrl.dram.rank1.preBackEnergy  44154176160                       # Energy for precharge background per rank (pJ) (Joule)
system.mem_ctrl.dram.rank1.actPowerDownEnergy            0                       # Energy for active power-down per rank (pJ) (Joule)
system.mem_ctrl.dram.rank1.prePowerDownEnergy            0                       # Energy for precharge power-down per rank (pJ) (Joule)
system.mem_ctrl.dram.rank1.selfRefreshEnergy            0                       # Energy for self refresh per rank (pJ) (Joule)
system.mem_ctrl.dram.rank1.totalEnergy   269853261870                       # Total energy per rank (pJ) (Joule)
system.mem_ctrl.dram.rank1.averagePower    526.523047                       # Core power per rank (mW) (Watt)
system.mem_ctrl.dram.rank1.totalIdleTime            0                       # Total Idle time Per DRAM Rank (Tick)
system.mem_ctrl.dram.rank1.pwrStateTime::IDLE 112882459107                       # Time in different power states (Tick)
system.mem_ctrl.dram.rank1.pwrStateTime::REF  17113980000                       # Time in different power states (Tick)
system.mem_ctrl.dram.rank1.pwrStateTime::SREF            0                       # Time in different power states (Tick)
system.mem_ctrl.dram.rank1.pwrStateTime::PRE_PDN            0                       # Time in different power states (Tick)
system.mem_ctrl.dram.rank1.pwrStateTime::ACT 382522934255                       # Time in different power states (Tick)
system.mem_ctrl.dram.rank1.pwrStateTime::ACT_PDN            0                       # Time in different power states (Tick)
system.mem_ctrl.power_state.pwrStateResidencyTicks::UNDEFINED 512519373362                       # Cumulative time (in ticks) in various power states (Tick)
system.membus.transDist::ReadResp              783164                       # Transaction distribution (Count)
system.membus.transDist::WritebackDirty         35864                       # Transaction distribution (Count)
system.membus.transDist::CleanEvict            780928                       # Transaction distribution (Count)
system.membus.transDist::ReadExReq              33628                       # Transaction distribution (Count)
system.membus.transDist::ReadExResp             33628                       # Transaction distribution (Count)
system.membus.transDist::ReadSharedReq         783164                       # Transaction distribution (Count)
system.membus.pktCount_system.cpu.l1d.mem_side_port::system.mem_ctrl.port       375795                       # Packet count per connected requestor and responder (Count)
system.membus.pktCount_system.cpu.l1d.mem_side_port::total       375795                       # Packet count per connected requestor and responder (Count)
system.membus.pktCount_system.cpu.l1i.mem_side_port::system.mem_ctrl.port      2074581                       # Packet count per connected requestor and responder (Count)
system.membus.pktCount_system.cpu.l1i.mem_side_port::total      2074581                       # Packet count per connected requestor and responder (Count)
system.membus.pktCount::total                 2450376                       # Packet count per connected requestor and responder (Count)
system.membus.pktSize_system.cpu.l1d.mem_side_port::system.mem_ctrl.port     10312256                       # Cumulative packet size per connected requestor and responder (Byte)
system.membus.pktSize_system.cpu.l1d.mem_side_port::total     10312256                       # Cumulative packet size per connected requestor and responder (Byte)
system.membus.pktSize_system.cpu.l1i.mem_side_port::system.mem_ctrl.port     44257728                       # Cumulative packet size per connected requestor and responder (Byte)
system.membus.pktSize_system.cpu.l1i.mem_side_port::total     44257728                       # Cumulative packet size per connected requestor and responder (Byte)
system.membus.pktSize::total                 54569984                       # Cumulative packet size per connected requestor and responder (Byte)
system.membus.snoops                                0                       # Total snoops (Count)
system.membus.snoopTraffic                          0                       # Total snoop traffic (Byte)
system.membus.snoopFanout::samples             816792                       # Request fanout histogram (Count)
system.membus.snoopFanout::mean                     0                       # Request fanout histogram (Count)
system.membus.snoopFanout::stdev                    0                       # Request fanout histogram (Count)
system.membus.snoopFanout::underflows               0      0.00%      0.00% # Request fanout histogram (Count)
system.membus.snoopFanout::0                   816792    100.00%    100.00% # Request fanout histogram (Count)
system.membus.snoopFanout::1                        0      0.00%    100.00% # Request fanout histogram (Count)
system.membus.snoopFanout::2                        0      0.00%    100.00% # Request fanout histogram (Count)
system.membus.snoopFanout::overflows                0      0.00%    100.00% # Request fanout histogram (Count)
system.membus.snoopFanout::min_value                0                       # Request fanout histogram (Count)
system.membus.snoopFanout::max_value                0                       # Request fanout histogram (Count)
system.membus.snoopFanout::total               816792                       # Request fanout histogram (Count)
system.membus.power_state.pwrStateResidencyTicks::UNDEFINED 512519373362                       # Cumulative time (in ticks) in various power states (Tick)
system.membus.reqLayer2.occupancy         23693274320                       # Layer occupancy (ticks) (Tick)
system.membus.reqLayer2.utilization               0.0                       # Layer utilization (Ratio)
system.membus.respLayer2.occupancy         8525776686                       # Layer occupancy (ticks) (Tick)
system.membus.respLayer2.utilization              0.0                       # Layer utilization (Ratio)
system.membus.respLayer3.occupancy        47000316586                       # Layer occupancy (ticks) (Tick)
system.membus.respLayer3.utilization              0.1                       # Layer utilization (Ratio)
system.membus.snoop_filter.totRequests        1633584                       # Total number of requests made to the snoop filter. (Count)
system.membus.snoop_filter.hitSingleRequests       816792                       # Number of requests hitting in the snoop filter with a single holder of the requested data. (Count)
system.membus.snoop_filter.hitMultiRequests            0                       # Number of requests hitting in the snoop filter with multiple (>1) holders of the requested data. (Count)
system.membus.snoop_filter.totSnoops                0                       # Total number of snoops made to the snoop filter. (Count)
system.membus.snoop_filter.hitSingleSnoops            0                       # Number of snoops hitting in the snoop filter with a single holder of the requested data. (Count)
system.membus.snoop_filter.hitMultiSnoops            0                       # Number of snoops hitting in the snoop filter with multiple (>1) holders of the requested data. (Count)
system.workload.inst.arm                            0                       # number of arm instructions executed (Count)
system.workload.inst.quiesce                        0                       # number of quiesce instructions executed (Count)

---------- End Simulation Statistics   ----------
