
---------- Begin Simulation Statistics ----------
simSeconds                                   2.024068                       # Number of seconds simulated (Second)
simTicks                                 2024067890371                       # Number of ticks simulated (Tick)
finalTick                                2024067890371                       # Number of ticks from beginning of simulation (restored from checkpoints and never reset) (Tick)
simFreq                                  1000000000000                       # The number of ticks per simulated second ((Tick/Second))
hostSeconds                                     98.31                       # Real time elapsed on the host (Second)
hostTickRate                              20588650360                       # The number of ticks simulated per host second (ticks/s) ((Tick/Second))
hostMemory                                    8628464                       # Number of bytes of host memory used (Byte)
simInsts                                     76559838                       # Number of instructions simulated (Count)
simOps                                      133139681                       # Number of ops (including micro ops) simulated (Count)
hostInstRate                                   778754                       # Simulator instruction rate (inst/s) ((Count/Second))
hostOpRate                                    1354275                       # Simulator op (including micro ops) rate (op/s) ((Count/Second))
system.clk_domain.clock                         13333                       # Clock period in ticks (Tick)
system.clk_domain.voltage_domain.voltage            1                       # Voltage in Volts (Volt)
system.cpu.numCycles                        151808887                       # Number of cpu cycles simulated (Cycle)
system.cpu.cpi                               1.982818                       # CPI: cycles per instruction (core level) ((Cycle/Count))
system.cpu.ipc                               0.504333                       # IPC: instructions per cycle (core level) ((Count/Cycle))
system.cpu.numWorkItemsStarted                      0                       # Number of work items this cpu started (Count)
system.cpu.numWorkItemsCompleted                    0                       # Number of work items this cpu completed (Count)
system.cpu.commitStats0.numInsts             76562194                       # Number of instructions committed (thread level) (Count)
system.cpu.commitStats0.numOps              133142303                       # Number of ops (including micro ops) committed (thread level) (Count)
system.cpu.commitStats0.numInstsNotNOP              0                       # Number of instructions committed excluding NOPs or prefetches (Count)
system.cpu.commitStats0.numOpsNotNOP                0                       # Number of Ops (including micro ops) Simulated (Count)
system.cpu.commitStats0.cpi                  1.982818                       # CPI: cycles per instruction (thread level) ((Cycle/Count))
system.cpu.commitStats0.ipc                  0.504333                       # IPC: instructions per cycle (thread level) ((Count/Cycle))
system.cpu.commitStats0.numMemRefs                  0                       # Number of memory references committed (Count)
system.cpu.commitStats0.numFpInsts            1263566                       # Number of float instructions (Count)
system.cpu.commitStats0.numIntInsts         130980239                       # Number of integer instructions (Count)
system.cpu.commitStats0.numLoadInsts         24444545                       # Number of load instructions (Count)
system.cpu.commitStats0.numStoreInsts         9930922                       # Number of store instructions (Count)
system.cpu.commitStats0.numVecInsts                 0                       # Number of vector instructions (Count)
system.cpu.commitStats0.committedInstType::No_OpClass      1233013      0.93%      0.93% # Class of committed instruction. (Count)
system.cpu.commitStats0.committedInstType::IntAlu     96802775     72.71%     73.63% # Class of committed instruction. (Count)
system.cpu.commitStats0.committedInstType::IntMult       188553      0.14%     73.77% # Class of committed instruction. (Count)
system.cpu.commitStats0.committedInstType::IntDiv        44022      0.03%     73.81% # Class of committed instruction. (Count)
system.cpu.commitStats0.committedInstType::FloatAdd         7534      0.01%     73.81% # Class of committed instruction. (Count)
system.cpu.commitStats0.committedInstType::FloatCmp            0      0.00%     73.81% # Class of committed instruction. (Count)
system.cpu.commitStats0.committedInstType::FloatCvt         1232      0.00%     73.81% # Class of committed instruction. (Count)
system.cpu.commitStats0.committedInstType::FloatMult            0      0.00%     73.81% # Class of committed instruction. (Count)
system.cpu.commitStats0.committedInstType::FloatMultAcc            0      0.00%     73.81% # Class of committed instruction. (Count)
system.cpu.commitStats0.committedInstType::FloatDiv            0      0.00%     73.81% # Class of committed instruction. (Count)
system.cpu.commitStats0.committedInstType::FloatMisc            0      0.00%     73.81% # Class of committed instruction. (Count)
system.cpu.commitStats0.committedInstType::FloatSqrt            0      0.00%     73.81% # Class of committed instruction. (Count)
system.cpu.commitStats0.committedInstType::SimdAdd         6578      0.00%     73.82% # Class of committed instruction. (Count)
system.cpu.commitStats0.committedInstType::SimdAddAcc            0      0.00%     73.82% # Class of committed instruction. (Count)
system.cpu.commitStats0.committedInstType::SimdAlu       451427      0.34%     74.16% # Class of committed instruction. (Count)
system.cpu.commitStats0.committedInstType::SimdCmp            6      0.00%     74.16% # Class of committed instruction. (Count)
system.cpu.commitStats0.committedInstType::SimdCvt        13698      0.01%     74.17% # Class of committed instruction. (Count)
system.cpu.commitStats0.committedInstType::SimdMisc        14247      0.01%     74.18% # Class of committed instruction. (Count)
system.cpu.commitStats0.committedInstType::SimdMult            0      0.00%     74.18% # Class of committed instruction. (Count)
system.cpu.commitStats0.committedInstType::SimdMultAcc            0      0.00%     74.18% # Class of committed instruction. (Count)
system.cpu.commitStats0.committedInstType::SimdMatMultAcc            0      0.00%     74.18% # Class of committed instruction. (Count)
system.cpu.commitStats0.committedInstType::SimdShift         1823      0.00%     74.18% # Class of committed instruction. (Count)
system.cpu.commitStats0.committedInstType::SimdShiftAcc            0      0.00%     74.18% # Class of committed instruction. (Count)
system.cpu.commitStats0.committedInstType::SimdDiv            0      0.00%     74.18% # Class of committed instruction. (Count)
system.cpu.commitStats0.committedInstType::SimdSqrt            0      0.00%     74.18% # Class of committed instruction. (Count)
system.cpu.commitStats0.committedInstType::SimdFloatAdd           14      0.00%     74.18% # Class of committed instruction. (Count)
system.cpu.commitStats0.committedInstType::SimdFloatAlu            0      0.00%     74.18% # Class of committed instruction. (Count)
system.cpu.commitStats0.committedInstType::SimdFloatCmp            0      0.00%     74.18% # Class of committed instruction. (Count)
system.cpu.commitStats0.committedInstType::SimdFloatCvt         1588      0.00%     74.18% # Class of committed instruction. (Count)
system.cpu.commitStats0.committedInstType::SimdFloatDiv          326      0.00%     74.18% # Class of committed instruction. (Count)
system.cpu.commitStats0.committedInstType::SimdFloatMisc            0      0.00%     74.18% # Class of committed instruction. (Count)
system.cpu.commitStats0.committedInstType::SimdFloatMult            0      0.00%     74.18% # Class of committed instruction. (Count)
system.cpu.commitStats0.committedInstType::SimdFloatMultAcc            0      0.00%     74.18% # Class of committed instruction. (Count)
system.cpu.commitStats0.committedInstType::SimdFloatMatMultAcc            0      0.00%     74.18% # Class of committed instruction. (Count)
system.cpu.commitStats0.committedInstType::SimdFloatSqrt            0      0.00%     74.18% # Class of committed instruction. (Count)
system.cpu.commitStats0.committedInstType::SimdReduceAdd            0      0.00%     74.18% # Class of committed instruction. (Count)
system.cpu.commitStats0.committedInstType::SimdReduceAlu            0      0.00%     74.18% # Class of committed instruction. (Count)
system.cpu.commitStats0.committedInstType::SimdReduceCmp            0      0.00%     74.18% # Class of committed instruction. (Count)
system.cpu.commitStats0.committedInstType::SimdFloatReduceAdd            0      0.00%     74.18% # Class of committed instruction. (Count)
system.cpu.commitStats0.committedInstType::SimdFloatReduceCmp            0      0.00%     74.18% # Class of committed instruction. (Count)
system.cpu.commitStats0.committedInstType::SimdAes            0      0.00%     74.18% # Class of committed instruction. (Count)
system.cpu.commitStats0.committedInstType::SimdAesMix            0      0.00%     74.18% # Class of committed instruction. (Count)
system.cpu.commitStats0.committedInstType::SimdSha1Hash            0      0.00%     74.18% # Class of committed instruction. (Count)
system.cpu.commitStats0.committedInstType::SimdSha1Hash2            0      0.00%     74.18% # Class of committed instruction. (Count)
system.cpu.commitStats0.committedInstType::SimdSha256Hash            0      0.00%     74.18% # Class of committed instruction. (Count)
system.cpu.commitStats0.committedInstType::SimdSha256Hash2            0      0.00%     74.18% # Class of committed instruction. (Count)
system.cpu.commitStats0.committedInstType::SimdShaSigma2            0      0.00%     74.18% # Class of committed instruction. (Count)
system.cpu.commitStats0.committedInstType::SimdShaSigma3            0      0.00%     74.18% # Class of committed instruction. (Count)
system.cpu.commitStats0.committedInstType::SimdPredAlu            0      0.00%     74.18% # Class of committed instruction. (Count)
system.cpu.commitStats0.committedInstType::Matrix            0      0.00%     74.18% # Class of committed instruction. (Count)
system.cpu.commitStats0.committedInstType::MatrixMov            0      0.00%     74.18% # Class of committed instruction. (Count)
system.cpu.commitStats0.committedInstType::MatrixOP            0      0.00%     74.18% # Class of committed instruction. (Count)
system.cpu.commitStats0.committedInstType::MemRead     24280867     18.24%     92.42% # Class of committed instruction. (Count)
system.cpu.commitStats0.committedInstType::MemWrite      9333432      7.01%     99.43% # Class of committed instruction. (Count)
system.cpu.commitStats0.committedInstType::FloatMemRead       163678      0.12%     99.55% # Class of committed instruction. (Count)
system.cpu.commitStats0.committedInstType::FloatMemWrite       597490      0.45%    100.00% # Class of committed instruction. (Count)
system.cpu.commitStats0.committedInstType::IprAccess            0      0.00%    100.00% # Class of committed instruction. (Count)
system.cpu.commitStats0.committedInstType::InstPrefetch            0      0.00%    100.00% # Class of committed instruction. (Count)
system.cpu.commitStats0.committedInstType::SimdUnitStrideLoad            0      0.00%    100.00% # Class of committed instruction. (Count)
system.cpu.commitStats0.committedInstType::SimdUnitStrideStore            0      0.00%    100.00% # Class of committed instruction. (Count)
system.cpu.commitStats0.committedInstType::SimdUnitStrideMaskLoad            0      0.00%    100.00% # Class of committed instruction. (Count)
system.cpu.commitStats0.committedInstType::SimdUnitStrideMaskStore            0      0.00%    100.00% # Class of committed instruction. (Count)
system.cpu.commitStats0.committedInstType::SimdStridedLoad            0      0.00%    100.00% # Class of committed instruction. (Count)
system.cpu.commitStats0.committedInstType::SimdStridedStore            0      0.00%    100.00% # Class of committed instruction. (Count)
system.cpu.commitStats0.committedInstType::SimdIndexedLoad            0      0.00%    100.00% # Class of committed instruction. (Count)
system.cpu.commitStats0.committedInstType::SimdIndexedStore            0      0.00%    100.00% # Class of committed instruction. (Count)
system.cpu.commitStats0.committedInstType::SimdWholeRegisterLoad            0      0.00%    100.00% # Class of committed instruction. (Count)
system.cpu.commitStats0.committedInstType::SimdWholeRegisterStore            0      0.00%    100.00% # Class of committed instruction. (Count)
system.cpu.commitStats0.committedInstType::SimdUnitStrideFaultOnlyFirstLoad            0      0.00%    100.00% # Class of committed instruction. (Count)
system.cpu.commitStats0.committedInstType::SimdUnitStrideSegmentedLoad            0      0.00%    100.00% # Class of committed instruction. (Count)
system.cpu.commitStats0.committedInstType::SimdUnitStrideSegmentedStore            0      0.00%    100.00% # Class of committed instruction. (Count)
system.cpu.commitStats0.committedInstType::SimdExt            0      0.00%    100.00% # Class of committed instruction. (Count)
system.cpu.commitStats0.committedInstType::SimdFloatExt            0      0.00%    100.00% # Class of committed instruction. (Count)
system.cpu.commitStats0.committedInstType::SimdConfig            0      0.00%    100.00% # Class of committed instruction. (Count)
system.cpu.commitStats0.committedInstType::total    133142303                       # Class of committed instruction. (Count)
system.cpu.commitStats0.committedControl::IsControl     12786622                       # Class of control type instructions committed (Count)
system.cpu.commitStats0.committedControl::IsDirectControl     11626639                       # Class of control type instructions committed (Count)
system.cpu.commitStats0.committedControl::IsIndirectControl      1159693                       # Class of control type instructions committed (Count)
system.cpu.commitStats0.committedControl::IsCondControl      9969820                       # Class of control type instructions committed (Count)
system.cpu.commitStats0.committedControl::IsUncondControl      2816512                       # Class of control type instructions committed (Count)
system.cpu.commitStats0.committedControl::IsCall      1151226                       # Class of control type instructions committed (Count)
system.cpu.commitStats0.committedControl::IsReturn      1151221                       # Class of control type instructions committed (Count)
system.cpu.exec_context.thread_0.numMatAluAccesses            0                       # Number of matrix alu accesses (Count)
system.cpu.exec_context.thread_0.numCallsReturns      2302447                       # Number of times a function call or return occured (Count)
system.cpu.exec_context.thread_0.numMatInsts            0                       # Number of matrix instructions (Count)
system.cpu.exec_context.thread_0.numIdleCycles            0                       # Number of idle cycles (Cycle)
system.cpu.exec_context.thread_0.numBusyCycles    151808887                       # Number of busy cycles (Cycle)
system.cpu.exec_context.thread_0.notIdleFraction            1                       # Percentage of non-idle cycles (Ratio)
system.cpu.exec_context.thread_0.idleFraction            0                       # Percentage of idle cycles (Ratio)
system.cpu.executeStats0.numInsts                   0                       # Number of executed instructions (Count)
system.cpu.executeStats0.numNop                     0                       # Number of nop insts executed (Count)
system.cpu.executeStats0.numBranches                0                       # Number of branches executed (Count)
system.cpu.executeStats0.numLoadInsts               0                       # Number of load instructions executed (Count)
system.cpu.executeStats0.numStoreInsts       34375467                       # Number of stores executed (Count)
system.cpu.executeStats0.instRate                   0                       # Inst execution rate ((Count/Cycle))
system.cpu.executeStats0.numFpAluAccesses      1263566                       # Number of float alu accesses (Count)
system.cpu.executeStats0.numFpRegReads        1592713                       # Number of times the floating registers were read (Count)
system.cpu.executeStats0.numFpRegWrites        657111                       # Number of times the floating registers were written (Count)
system.cpu.executeStats0.numIntAluAccesses    130980239                       # Number of integer alu accesses (Count)
system.cpu.executeStats0.numIntRegReads     164852485                       # Number of times the integer registers were read (Count)
system.cpu.executeStats0.numIntRegWrites     97573757                       # Number of times the integer registers were written (Count)
system.cpu.executeStats0.numMemRefs          34375467                       # Number of memory refs (Count)
system.cpu.executeStats0.numMiscRegReads     59178042                       # Number of times the Misc registers were read (Count)
system.cpu.executeStats0.numMiscRegWrites          693                       # Number of times the Misc registers were written (Count)
system.cpu.executeStats0.numVecAluAccesses            0                       # Number of vector alu accesses (Count)
system.cpu.executeStats0.numDiscardedOps            0                       # Number of ops (including micro ops) which were discarded before commit (Count)
system.cpu.fetchStats0.numInsts              76562194                       # Number of instructions fetched (thread level) (Count)
system.cpu.fetchStats0.numOps               133142303                       # Number of ops (including micro ops) fetched (thread level) (Count)
system.cpu.fetchStats0.fetchRate             0.504333                       # Number of inst fetches per cycle ((Count/Cycle))
system.cpu.fetchStats0.numBranches           12786622                       # Number of branches fetched (Count)
system.cpu.fetchStats0.branchRate            0.084228                       # Number of branch fetches per cycle (Ratio)
system.cpu.fetchStats0.numFetchSuspends             0                       # Number of times Execute suspended instruction fetching (Count)
system.cpu.interrupts.clk_domain.clock         213328                       # Clock period in ticks (Tick)
system.cpu.l1d.demandHits::cpu.data          32943816                       # number of demand (read+write) hits (Count)
system.cpu.l1d.demandHits::total             32943816                       # number of demand (read+write) hits (Count)
system.cpu.l1d.overallHits::cpu.data         32943816                       # number of overall hits (Count)
system.cpu.l1d.overallHits::total            32943816                       # number of overall hits (Count)
system.cpu.l1d.demandMisses::cpu.data         1048309                       # number of demand (read+write) misses (Count)
system.cpu.l1d.demandMisses::total            1048309                       # number of demand (read+write) misses (Count)
system.cpu.l1d.overallMisses::cpu.data        1048309                       # number of overall misses (Count)
system.cpu.l1d.overallMisses::total           1048309                       # number of overall misses (Count)
system.cpu.l1d.demandMissLatency::cpu.data 212981368666                       # number of demand (read+write) miss ticks (Tick)
system.cpu.l1d.demandMissLatency::total  212981368666                       # number of demand (read+write) miss ticks (Tick)
system.cpu.l1d.overallMissLatency::cpu.data 212981368666                       # number of overall miss ticks (Tick)
system.cpu.l1d.overallMissLatency::total 212981368666                       # number of overall miss ticks (Tick)
system.cpu.l1d.demandAccesses::cpu.data      33992125                       # number of demand (read+write) accesses (Count)
system.cpu.l1d.demandAccesses::total         33992125                       # number of demand (read+write) accesses (Count)
system.cpu.l1d.overallAccesses::cpu.data     33992125                       # number of overall (read+write) accesses (Count)
system.cpu.l1d.overallAccesses::total        33992125                       # number of overall (read+write) accesses (Count)
system.cpu.l1d.demandMissRate::cpu.data      0.030840                       # miss rate for demand accesses (Ratio)
system.cpu.l1d.demandMissRate::total         0.030840                       # miss rate for demand accesses (Ratio)
system.cpu.l1d.overallMissRate::cpu.data     0.030840                       # miss rate for overall accesses (Ratio)
system.cpu.l1d.overallMissRate::total        0.030840                       # miss rate for overall accesses (Ratio)
system.cpu.l1d.demandAvgMissLatency::cpu.data 203166.593691                       # average overall miss latency in ticks ((Tick/Count))
system.cpu.l1d.demandAvgMissLatency::total 203166.593691                       # average overall miss latency in ticks ((Tick/Count))
system.cpu.l1d.overallAvgMissLatency::cpu.data 203166.593691                       # average overall miss latency ((Tick/Count))
system.cpu.l1d.overallAvgMissLatency::total 203166.593691                       # average overall miss latency ((Tick/Count))
system.cpu.l1d.blockedCycles::no_mshrs              0                       # number of cycles access was blocked (Cycle)
system.cpu.l1d.blockedCycles::no_targets            0                       # number of cycles access was blocked (Cycle)
system.cpu.l1d.blockedCauses::no_mshrs              0                       # number of times access was blocked (Count)
system.cpu.l1d.blockedCauses::no_targets            0                       # number of times access was blocked (Count)
system.cpu.l1d.avgBlocked::no_mshrs               nan                       # average number of cycles each access was blocked ((Cycle/Count))
system.cpu.l1d.avgBlocked::no_targets             nan                       # average number of cycles each access was blocked ((Cycle/Count))
system.cpu.l1d.writebacks::writebacks          457440                       # number of writebacks (Count)
system.cpu.l1d.writebacks::total               457440                       # number of writebacks (Count)
system.cpu.l1d.demandMshrMisses::cpu.data      1048309                       # number of demand (read+write) MSHR misses (Count)
system.cpu.l1d.demandMshrMisses::total        1048309                       # number of demand (read+write) MSHR misses (Count)
system.cpu.l1d.overallMshrMisses::cpu.data      1048309                       # number of overall MSHR misses (Count)
system.cpu.l1d.overallMshrMisses::total       1048309                       # number of overall MSHR misses (Count)
system.cpu.l1d.demandMshrMissLatency::cpu.data 199004264769                       # number of demand (read+write) MSHR miss ticks (Tick)
system.cpu.l1d.demandMshrMissLatency::total 199004264769                       # number of demand (read+write) MSHR miss ticks (Tick)
system.cpu.l1d.overallMshrMissLatency::cpu.data 199004264769                       # number of overall MSHR miss ticks (Tick)
system.cpu.l1d.overallMshrMissLatency::total 199004264769                       # number of overall MSHR miss ticks (Tick)
system.cpu.l1d.demandMshrMissRate::cpu.data     0.030840                       # mshr miss ratio for demand accesses (Ratio)
system.cpu.l1d.demandMshrMissRate::total     0.030840                       # mshr miss ratio for demand accesses (Ratio)
system.cpu.l1d.overallMshrMissRate::cpu.data     0.030840                       # mshr miss ratio for overall accesses (Ratio)
system.cpu.l1d.overallMshrMissRate::total     0.030840                       # mshr miss ratio for overall accesses (Ratio)
system.cpu.l1d.demandAvgMshrMissLatency::cpu.data 189833.593691                       # average overall mshr miss latency ((Tick/Count))
system.cpu.l1d.demandAvgMshrMissLatency::total 189833.593691                       # average overall mshr miss latency ((Tick/Count))
system.cpu.l1d.overallAvgMshrMissLatency::cpu.data 189833.593691                       # average overall mshr miss latency ((Tick/Count))
system.cpu.l1d.overallAvgMshrMissLatency::total 189833.593691                       # average overall mshr miss latency ((Tick/Count))
system.cpu.l1d.replacements                   1048336                       # number of replacements (Count)
system.cpu.l1d.LockedRMWReadReq.hits::cpu.data       190974                       # number of LockedRMWReadReq hits (Count)
system.cpu.l1d.LockedRMWReadReq.hits::total       190974                       # number of LockedRMWReadReq hits (Count)
system.cpu.l1d.LockedRMWReadReq.misses::cpu.data           91                       # number of LockedRMWReadReq misses (Count)
system.cpu.l1d.LockedRMWReadReq.misses::total           91                       # number of LockedRMWReadReq misses (Count)
system.cpu.l1d.LockedRMWReadReq.missLatency::cpu.data     19412848                       # number of LockedRMWReadReq miss ticks (Tick)
system.cpu.l1d.LockedRMWReadReq.missLatency::total     19412848                       # number of LockedRMWReadReq miss ticks (Tick)
system.cpu.l1d.LockedRMWReadReq.accesses::cpu.data       191065                       # number of LockedRMWReadReq accesses(hits+misses) (Count)
system.cpu.l1d.LockedRMWReadReq.accesses::total       191065                       # number of LockedRMWReadReq accesses(hits+misses) (Count)
system.cpu.l1d.LockedRMWReadReq.missRate::cpu.data     0.000476                       # miss rate for LockedRMWReadReq accesses (Ratio)
system.cpu.l1d.LockedRMWReadReq.missRate::total     0.000476                       # miss rate for LockedRMWReadReq accesses (Ratio)
system.cpu.l1d.LockedRMWReadReq.avgMissLatency::cpu.data       213328                       # average LockedRMWReadReq miss latency ((Tick/Count))
system.cpu.l1d.LockedRMWReadReq.avgMissLatency::total       213328                       # average LockedRMWReadReq miss latency ((Tick/Count))
system.cpu.l1d.LockedRMWReadReq.mshrMisses::cpu.data           91                       # number of LockedRMWReadReq MSHR misses (Count)
system.cpu.l1d.LockedRMWReadReq.mshrMisses::total           91                       # number of LockedRMWReadReq MSHR misses (Count)
system.cpu.l1d.LockedRMWReadReq.mshrMissLatency::cpu.data   2583868735                       # number of LockedRMWReadReq MSHR miss ticks (Tick)
system.cpu.l1d.LockedRMWReadReq.mshrMissLatency::total   2583868735                       # number of LockedRMWReadReq MSHR miss ticks (Tick)
system.cpu.l1d.LockedRMWReadReq.mshrMissRate::cpu.data     0.000476                       # mshr miss rate for LockedRMWReadReq accesses (Ratio)
system.cpu.l1d.LockedRMWReadReq.mshrMissRate::total     0.000476                       # mshr miss rate for LockedRMWReadReq accesses (Ratio)
system.cpu.l1d.LockedRMWReadReq.avgMshrMissLatency::cpu.data 28394161.923077                       # average LockedRMWReadReq mshr miss latency ((Tick/Count))
system.cpu.l1d.LockedRMWReadReq.avgMshrMissLatency::total 28394161.923077                       # average LockedRMWReadReq mshr miss latency ((Tick/Count))
system.cpu.l1d.LockedRMWWriteReq.hits::cpu.data       191065                       # number of LockedRMWWriteReq hits (Count)
system.cpu.l1d.LockedRMWWriteReq.hits::total       191065                       # number of LockedRMWWriteReq hits (Count)
system.cpu.l1d.LockedRMWWriteReq.accesses::cpu.data       191065                       # number of LockedRMWWriteReq accesses(hits+misses) (Count)
system.cpu.l1d.LockedRMWWriteReq.accesses::total       191065                       # number of LockedRMWWriteReq accesses(hits+misses) (Count)
system.cpu.l1d.ReadReq.hits::cpu.data        23402247                       # number of ReadReq hits (Count)
system.cpu.l1d.ReadReq.hits::total           23402247                       # number of ReadReq hits (Count)
system.cpu.l1d.ReadReq.misses::cpu.data        850940                       # number of ReadReq misses (Count)
system.cpu.l1d.ReadReq.misses::total           850940                       # number of ReadReq misses (Count)
system.cpu.l1d.ReadReq.missLatency::cpu.data 174831415772                       # number of ReadReq miss ticks (Tick)
system.cpu.l1d.ReadReq.missLatency::total 174831415772                       # number of ReadReq miss ticks (Tick)
system.cpu.l1d.ReadReq.accesses::cpu.data     24253187                       # number of ReadReq accesses(hits+misses) (Count)
system.cpu.l1d.ReadReq.accesses::total       24253187                       # number of ReadReq accesses(hits+misses) (Count)
system.cpu.l1d.ReadReq.missRate::cpu.data     0.035086                       # miss rate for ReadReq accesses (Ratio)
system.cpu.l1d.ReadReq.missRate::total       0.035086                       # miss rate for ReadReq accesses (Ratio)
system.cpu.l1d.ReadReq.avgMissLatency::cpu.data 205456.807498                       # average ReadReq miss latency ((Tick/Count))
system.cpu.l1d.ReadReq.avgMissLatency::total 205456.807498                       # average ReadReq miss latency ((Tick/Count))
system.cpu.l1d.ReadReq.mshrMisses::cpu.data       850940                       # number of ReadReq MSHR misses (Count)
system.cpu.l1d.ReadReq.mshrMisses::total       850940                       # number of ReadReq MSHR misses (Count)
system.cpu.l1d.ReadReq.mshrMissLatency::cpu.data 163485832752                       # number of ReadReq MSHR miss ticks (Tick)
system.cpu.l1d.ReadReq.mshrMissLatency::total 163485832752                       # number of ReadReq MSHR miss ticks (Tick)
system.cpu.l1d.ReadReq.mshrMissRate::cpu.data     0.035086                       # mshr miss rate for ReadReq accesses (Ratio)
system.cpu.l1d.ReadReq.mshrMissRate::total     0.035086                       # mshr miss rate for ReadReq accesses (Ratio)
system.cpu.l1d.ReadReq.avgMshrMissLatency::cpu.data 192123.807498                       # average ReadReq mshr miss latency ((Tick/Count))
system.cpu.l1d.ReadReq.avgMshrMissLatency::total 192123.807498                       # average ReadReq mshr miss latency ((Tick/Count))
system.cpu.l1d.WriteReq.hits::cpu.data        9541569                       # number of WriteReq hits (Count)
system.cpu.l1d.WriteReq.hits::total           9541569                       # number of WriteReq hits (Count)
system.cpu.l1d.WriteReq.misses::cpu.data       197369                       # number of WriteReq misses (Count)
system.cpu.l1d.WriteReq.misses::total          197369                       # number of WriteReq misses (Count)
system.cpu.l1d.WriteReq.missLatency::cpu.data  38149952894                       # number of WriteReq miss ticks (Tick)
system.cpu.l1d.WriteReq.missLatency::total  38149952894                       # number of WriteReq miss ticks (Tick)
system.cpu.l1d.WriteReq.accesses::cpu.data      9738938                       # number of WriteReq accesses(hits+misses) (Count)
system.cpu.l1d.WriteReq.accesses::total       9738938                       # number of WriteReq accesses(hits+misses) (Count)
system.cpu.l1d.WriteReq.missRate::cpu.data     0.020266                       # miss rate for WriteReq accesses (Ratio)
system.cpu.l1d.WriteReq.missRate::total      0.020266                       # miss rate for WriteReq accesses (Ratio)
system.cpu.l1d.WriteReq.avgMissLatency::cpu.data 193292.527672                       # average WriteReq miss latency ((Tick/Count))
system.cpu.l1d.WriteReq.avgMissLatency::total 193292.527672                       # average WriteReq miss latency ((Tick/Count))
system.cpu.l1d.WriteReq.mshrMisses::cpu.data       197369                       # number of WriteReq MSHR misses (Count)
system.cpu.l1d.WriteReq.mshrMisses::total       197369                       # number of WriteReq MSHR misses (Count)
system.cpu.l1d.WriteReq.mshrMissLatency::cpu.data  35518432017                       # number of WriteReq MSHR miss ticks (Tick)
system.cpu.l1d.WriteReq.mshrMissLatency::total  35518432017                       # number of WriteReq MSHR miss ticks (Tick)
system.cpu.l1d.WriteReq.mshrMissRate::cpu.data     0.020266                       # mshr miss rate for WriteReq accesses (Ratio)
system.cpu.l1d.WriteReq.mshrMissRate::total     0.020266                       # mshr miss rate for WriteReq accesses (Ratio)
system.cpu.l1d.WriteReq.avgMshrMissLatency::cpu.data 179959.527672                       # average WriteReq mshr miss latency ((Tick/Count))
system.cpu.l1d.WriteReq.avgMshrMissLatency::total 179959.527672                       # average WriteReq mshr miss latency ((Tick/Count))
system.cpu.l1d.power_state.pwrStateResidencyTicks::UNDEFINED 2024067890371                       # Cumulative time (in ticks) in various power states (Tick)
system.cpu.l1d.tags.tagsInUse               63.999248                       # Average ticks per tags in use ((Tick/Count))
system.cpu.l1d.tags.totalRefs                34366354                       # Total number of references to valid blocks. (Count)
system.cpu.l1d.tags.sampledRefs               1048336                       # Sample count of references to valid blocks. (Count)
system.cpu.l1d.tags.avgRefs                 32.781812                       # Average number of references to valid blocks. ((Count/Count))
system.cpu.l1d.tags.warmupTick                 479988                       # The tick when the warmup percentage was hit. (Tick)
system.cpu.l1d.tags.occupancies::cpu.data    63.999248                       # Average occupied blocks per tick, per requestor ((Count/Tick))
system.cpu.l1d.tags.avgOccs::cpu.data        0.999988                       # Average percentage of cache occupancy ((Ratio/Tick))
system.cpu.l1d.tags.avgOccs::total           0.999988                       # Average percentage of cache occupancy ((Ratio/Tick))
system.cpu.l1d.tags.occupanciesTaskId::1024           64                       # Occupied blocks per task id (Count)
system.cpu.l1d.tags.ageTaskId_1024::0               7                       # Occupied blocks per task id, per block age (Count)
system.cpu.l1d.tags.ageTaskId_1024::1              31                       # Occupied blocks per task id, per block age (Count)
system.cpu.l1d.tags.ageTaskId_1024::2              16                       # Occupied blocks per task id, per block age (Count)
system.cpu.l1d.tags.ageTaskId_1024::3              10                       # Occupied blocks per task id, per block age (Count)
system.cpu.l1d.tags.ratioOccsTaskId::1024            1                       # Ratio of occupied blocks and all blocks, per task id (Ratio)
system.cpu.l1d.tags.tagAccesses              69796910                       # Number of tag accesses (Count)
system.cpu.l1d.tags.dataAccesses             69796910                       # Number of data accesses (Count)
system.cpu.l1d.tags.power_state.pwrStateResidencyTicks::UNDEFINED 2024067890371                       # Cumulative time (in ticks) in various power states (Tick)
system.cpu.l1i.demandHits::cpu.inst         100428183                       # number of demand (read+write) hits (Count)
system.cpu.l1i.demandHits::total            100428183                       # number of demand (read+write) hits (Count)
system.cpu.l1i.overallHits::cpu.inst        100428183                       # number of overall hits (Count)
system.cpu.l1i.overallHits::total           100428183                       # number of overall hits (Count)
system.cpu.l1i.demandMisses::cpu.inst           79897                       # number of demand (read+write) misses (Count)
system.cpu.l1i.demandMisses::total              79897                       # number of demand (read+write) misses (Count)
system.cpu.l1i.overallMisses::cpu.inst          79897                       # number of overall misses (Count)
system.cpu.l1i.overallMisses::total             79897                       # number of overall misses (Count)
system.cpu.l1i.demandMissLatency::cpu.inst  17415964590                       # number of demand (read+write) miss ticks (Tick)
system.cpu.l1i.demandMissLatency::total   17415964590                       # number of demand (read+write) miss ticks (Tick)
system.cpu.l1i.overallMissLatency::cpu.inst  17415964590                       # number of overall miss ticks (Tick)
system.cpu.l1i.overallMissLatency::total  17415964590                       # number of overall miss ticks (Tick)
system.cpu.l1i.demandAccesses::cpu.inst     100508080                       # number of demand (read+write) accesses (Count)
system.cpu.l1i.demandAccesses::total        100508080                       # number of demand (read+write) accesses (Count)
system.cpu.l1i.overallAccesses::cpu.inst    100508080                       # number of overall (read+write) accesses (Count)
system.cpu.l1i.overallAccesses::total       100508080                       # number of overall (read+write) accesses (Count)
system.cpu.l1i.demandMissRate::cpu.inst      0.000795                       # miss rate for demand accesses (Ratio)
system.cpu.l1i.demandMissRate::total         0.000795                       # miss rate for demand accesses (Ratio)
system.cpu.l1i.overallMissRate::cpu.inst     0.000795                       # miss rate for overall accesses (Ratio)
system.cpu.l1i.overallMissRate::total        0.000795                       # miss rate for overall accesses (Ratio)
system.cpu.l1i.demandAvgMissLatency::cpu.inst 217980.206891                       # average overall miss latency in ticks ((Tick/Count))
system.cpu.l1i.demandAvgMissLatency::total 217980.206891                       # average overall miss latency in ticks ((Tick/Count))
system.cpu.l1i.overallAvgMissLatency::cpu.inst 217980.206891                       # average overall miss latency ((Tick/Count))
system.cpu.l1i.overallAvgMissLatency::total 217980.206891                       # average overall miss latency ((Tick/Count))
system.cpu.l1i.blockedCycles::no_mshrs              0                       # number of cycles access was blocked (Cycle)
system.cpu.l1i.blockedCycles::no_targets            0                       # number of cycles access was blocked (Cycle)
system.cpu.l1i.blockedCauses::no_mshrs              0                       # number of times access was blocked (Count)
system.cpu.l1i.blockedCauses::no_targets            0                       # number of times access was blocked (Count)
system.cpu.l1i.avgBlocked::no_mshrs               nan                       # average number of cycles each access was blocked ((Cycle/Count))
system.cpu.l1i.avgBlocked::no_targets             nan                       # average number of cycles each access was blocked ((Cycle/Count))
system.cpu.l1i.demandMshrMisses::cpu.inst        79897                       # number of demand (read+write) MSHR misses (Count)
system.cpu.l1i.demandMshrMisses::total          79897                       # number of demand (read+write) MSHR misses (Count)
system.cpu.l1i.overallMshrMisses::cpu.inst        79897                       # number of overall MSHR misses (Count)
system.cpu.l1i.overallMshrMisses::total         79897                       # number of overall MSHR misses (Count)
system.cpu.l1i.demandMshrMissLatency::cpu.inst  16350697889                       # number of demand (read+write) MSHR miss ticks (Tick)
system.cpu.l1i.demandMshrMissLatency::total  16350697889                       # number of demand (read+write) MSHR miss ticks (Tick)
system.cpu.l1i.overallMshrMissLatency::cpu.inst  16350697889                       # number of overall MSHR miss ticks (Tick)
system.cpu.l1i.overallMshrMissLatency::total  16350697889                       # number of overall MSHR miss ticks (Tick)
system.cpu.l1i.demandMshrMissRate::cpu.inst     0.000795                       # mshr miss ratio for demand accesses (Ratio)
system.cpu.l1i.demandMshrMissRate::total     0.000795                       # mshr miss ratio for demand accesses (Ratio)
system.cpu.l1i.overallMshrMissRate::cpu.inst     0.000795                       # mshr miss ratio for overall accesses (Ratio)
system.cpu.l1i.overallMshrMissRate::total     0.000795                       # mshr miss ratio for overall accesses (Ratio)
system.cpu.l1i.demandAvgMshrMissLatency::cpu.inst 204647.206891                       # average overall mshr miss latency ((Tick/Count))
system.cpu.l1i.demandAvgMshrMissLatency::total 204647.206891                       # average overall mshr miss latency ((Tick/Count))
system.cpu.l1i.overallAvgMshrMissLatency::cpu.inst 204647.206891                       # average overall mshr miss latency ((Tick/Count))
system.cpu.l1i.overallAvgMshrMissLatency::total 204647.206891                       # average overall mshr miss latency ((Tick/Count))
system.cpu.l1i.replacements                     79833                       # number of replacements (Count)
system.cpu.l1i.ReadReq.hits::cpu.inst       100428183                       # number of ReadReq hits (Count)
system.cpu.l1i.ReadReq.hits::total          100428183                       # number of ReadReq hits (Count)
system.cpu.l1i.ReadReq.misses::cpu.inst         79897                       # number of ReadReq misses (Count)
system.cpu.l1i.ReadReq.misses::total            79897                       # number of ReadReq misses (Count)
system.cpu.l1i.ReadReq.missLatency::cpu.inst  17415964590                       # number of ReadReq miss ticks (Tick)
system.cpu.l1i.ReadReq.missLatency::total  17415964590                       # number of ReadReq miss ticks (Tick)
system.cpu.l1i.ReadReq.accesses::cpu.inst    100508080                       # number of ReadReq accesses(hits+misses) (Count)
system.cpu.l1i.ReadReq.accesses::total      100508080                       # number of ReadReq accesses(hits+misses) (Count)
system.cpu.l1i.ReadReq.missRate::cpu.inst     0.000795                       # miss rate for ReadReq accesses (Ratio)
system.cpu.l1i.ReadReq.missRate::total       0.000795                       # miss rate for ReadReq accesses (Ratio)
system.cpu.l1i.ReadReq.avgMissLatency::cpu.inst 217980.206891                       # average ReadReq miss latency ((Tick/Count))
system.cpu.l1i.ReadReq.avgMissLatency::total 217980.206891                       # average ReadReq miss latency ((Tick/Count))
system.cpu.l1i.ReadReq.mshrMisses::cpu.inst        79897                       # number of ReadReq MSHR misses (Count)
system.cpu.l1i.ReadReq.mshrMisses::total        79897                       # number of ReadReq MSHR misses (Count)
system.cpu.l1i.ReadReq.mshrMissLatency::cpu.inst  16350697889                       # number of ReadReq MSHR miss ticks (Tick)
system.cpu.l1i.ReadReq.mshrMissLatency::total  16350697889                       # number of ReadReq MSHR miss ticks (Tick)
system.cpu.l1i.ReadReq.mshrMissRate::cpu.inst     0.000795                       # mshr miss rate for ReadReq accesses (Ratio)
system.cpu.l1i.ReadReq.mshrMissRate::total     0.000795                       # mshr miss rate for ReadReq accesses (Ratio)
system.cpu.l1i.ReadReq.avgMshrMissLatency::cpu.inst 204647.206891                       # average ReadReq mshr miss latency ((Tick/Count))
system.cpu.l1i.ReadReq.avgMshrMissLatency::total 204647.206891                       # average ReadReq mshr miss latency ((Tick/Count))
system.cpu.l1i.power_state.pwrStateResidencyTicks::UNDEFINED 2024067890371                       # Cumulative time (in ticks) in various power states (Tick)
system.cpu.l1i.tags.tagsInUse               63.997836                       # Average ticks per tags in use ((Tick/Count))
system.cpu.l1i.tags.totalRefs                99518419                       # Total number of references to valid blocks. (Count)
system.cpu.l1i.tags.sampledRefs                 79833                       # Sample count of references to valid blocks. (Count)
system.cpu.l1i.tags.avgRefs               1246.582478                       # Average number of references to valid blocks. ((Count/Count))
system.cpu.l1i.tags.warmupTick                 199995                       # The tick when the warmup percentage was hit. (Tick)
system.cpu.l1i.tags.occupancies::cpu.inst    63.997836                       # Average occupied blocks per tick, per requestor ((Count/Tick))
system.cpu.l1i.tags.avgOccs::cpu.inst        0.999966                       # Average percentage of cache occupancy ((Ratio/Tick))
system.cpu.l1i.tags.avgOccs::total           0.999966                       # Average percentage of cache occupancy ((Ratio/Tick))
system.cpu.l1i.tags.occupanciesTaskId::1024           64                       # Occupied blocks per task id (Count)
system.cpu.l1i.tags.ageTaskId_1024::0               7                       # Occupied blocks per task id, per block age (Count)
system.cpu.l1i.tags.ageTaskId_1024::1              31                       # Occupied blocks per task id, per block age (Count)
system.cpu.l1i.tags.ageTaskId_1024::2               4                       # Occupied blocks per task id, per block age (Count)
system.cpu.l1i.tags.ageTaskId_1024::3               1                       # Occupied blocks per task id, per block age (Count)
system.cpu.l1i.tags.ageTaskId_1024::4              21                       # Occupied blocks per task id, per block age (Count)
system.cpu.l1i.tags.ratioOccsTaskId::1024            1                       # Ratio of occupied blocks and all blocks, per task id (Ratio)
system.cpu.l1i.tags.tagAccesses             201096057                       # Number of tag accesses (Count)
system.cpu.l1i.tags.dataAccesses            201096057                       # Number of data accesses (Count)
system.cpu.l1i.tags.power_state.pwrStateResidencyTicks::UNDEFINED 2024067890371                       # Cumulative time (in ticks) in various power states (Tick)
system.cpu.mmu.dtb.rdAccesses                24444588                       # TLB accesses on read requests (Count)
system.cpu.mmu.dtb.wrAccesses                 9930936                       # TLB accesses on write requests (Count)
system.cpu.mmu.dtb.rdMisses                      3784                       # TLB misses on read requests (Count)
system.cpu.mmu.dtb.wrMisses                      1932                       # TLB misses on write requests (Count)
system.cpu.mmu.dtb.walker.power_state.pwrStateResidencyTicks::UNDEFINED 2024067890371                       # Cumulative time (in ticks) in various power states (Tick)
system.cpu.mmu.itb.rdAccesses                       0                       # TLB accesses on read requests (Count)
system.cpu.mmu.itb.wrAccesses               100508195                       # TLB accesses on write requests (Count)
system.cpu.mmu.itb.rdMisses                         0                       # TLB misses on read requests (Count)
system.cpu.mmu.itb.wrMisses                       486                       # TLB misses on write requests (Count)
system.cpu.mmu.itb.walker.power_state.pwrStateResidencyTicks::UNDEFINED 2024067890371                       # Cumulative time (in ticks) in various power states (Tick)
system.cpu.power_state.pwrStateResidencyTicks::ON 2024067890371                       # Cumulative time (in ticks) in various power states (Tick)
system.cpu.thread_0.numInsts                        0                       # Number of Instructions committed (Count)
system.cpu.thread_0.numOps                          0                       # Number of Ops committed (Count)
system.cpu.thread_0.numMemRefs                      0                       # Number of Memory References (Count)
system.cpu.workload.numSyscalls                  1354                       # Number of system calls (Count)
system.mem_ctrl.avgPriority_writebacks::samples    253533.00                       # Average QoS priority value for accepted requests (Count)
system.mem_ctrl.avgPriority_cpu.inst::samples     79897.00                       # Average QoS priority value for accepted requests (Count)
system.mem_ctrl.avgPriority_cpu.data::samples    737656.00                       # Average QoS priority value for accepted requests (Count)
system.mem_ctrl.priorityMinLatency       0.000000018750                       # per QoS priority minimum request to response latency (Second)
system.mem_ctrl.priorityMaxLatency       0.017368451612                       # per QoS priority maximum request to response latency (Second)
system.mem_ctrl.numReadWriteTurnArounds         14095                       # Number of turnarounds from READ to WRITE (Count)
system.mem_ctrl.numWriteReadTurnArounds         14095                       # Number of turnarounds from WRITE to READ (Count)
system.mem_ctrl.numStayReadState              2611505                       # Number of times bus staying in READ state (Count)
system.mem_ctrl.numStayWriteState              239769                       # Number of times bus staying in WRITE state (Count)
system.mem_ctrl.readReqs                      1128297                       # Number of read requests accepted (Count)
system.mem_ctrl.writeReqs                      457440                       # Number of write requests accepted (Count)
system.mem_ctrl.readBursts                    1128297                       # Number of controller read bursts, including those serviced by the write queue (Count)
system.mem_ctrl.writeBursts                    457440                       # Number of controller write bursts, including those merged in the write queue (Count)
system.mem_ctrl.servicedByWrQ                  310744                       # Number of controller read bursts serviced by the write queue (Count)
system.mem_ctrl.mergedWrBursts                 203907                       # Number of controller write bursts merged with an existing one (Count)
system.mem_ctrl.neitherReadNorWriteReqs             0                       # Number of requests that are neither read nor write (Count)
system.mem_ctrl.avgRdQLen                        1.00                       # Average read queue length when enqueuing ((Count/Tick))
system.mem_ctrl.avgWrQLen                       25.02                       # Average write queue length when enqueuing ((Count/Tick))
system.mem_ctrl.numRdRetry                          0                       # Number of times read queue was full causing retry (Count)
system.mem_ctrl.numWrRetry                          0                       # Number of times write queue was full causing retry (Count)
system.mem_ctrl.readPktSize::0                      0                       # Read request sizes (log2) (Count)
system.mem_ctrl.readPktSize::1                      0                       # Read request sizes (log2) (Count)
system.mem_ctrl.readPktSize::2                      0                       # Read request sizes (log2) (Count)
system.mem_ctrl.readPktSize::3                      0                       # Read request sizes (log2) (Count)
system.mem_ctrl.readPktSize::4                      0                       # Read request sizes (log2) (Count)
system.mem_ctrl.readPktSize::5                      0                       # Read request sizes (log2) (Count)
system.mem_ctrl.readPktSize::6                1128297                       # Read request sizes (log2) (Count)
system.mem_ctrl.writePktSize::0                     0                       # Write request sizes (log2) (Count)
system.mem_ctrl.writePktSize::1                     0                       # Write request sizes (log2) (Count)
system.mem_ctrl.writePktSize::2                     0                       # Write request sizes (log2) (Count)
system.mem_ctrl.writePktSize::3                     0                       # Write request sizes (log2) (Count)
system.mem_ctrl.writePktSize::4                     0                       # Write request sizes (log2) (Count)
system.mem_ctrl.writePktSize::5                     0                       # Write request sizes (log2) (Count)
system.mem_ctrl.writePktSize::6                457440                       # Write request sizes (log2) (Count)
system.mem_ctrl.rdQLenPdf::0                   817546                       # What read queue length does an incoming req see (Count)
system.mem_ctrl.rdQLenPdf::1                        7                       # What read queue length does an incoming req see (Count)
system.mem_ctrl.rdQLenPdf::2                        0                       # What read queue length does an incoming req see (Count)
system.mem_ctrl.rdQLenPdf::3                        0                       # What read queue length does an incoming req see (Count)
system.mem_ctrl.rdQLenPdf::4                        0                       # What read queue length does an incoming req see (Count)
system.mem_ctrl.rdQLenPdf::5                        0                       # What read queue length does an incoming req see (Count)
system.mem_ctrl.rdQLenPdf::6                        0                       # What read queue length does an incoming req see (Count)
system.mem_ctrl.rdQLenPdf::7                        0                       # What read queue length does an incoming req see (Count)
system.mem_ctrl.rdQLenPdf::8                        0                       # What read queue length does an incoming req see (Count)
system.mem_ctrl.rdQLenPdf::9                        0                       # What read queue length does an incoming req see (Count)
system.mem_ctrl.rdQLenPdf::10                       0                       # What read queue length does an incoming req see (Count)
system.mem_ctrl.rdQLenPdf::11                       0                       # What read queue length does an incoming req see (Count)
system.mem_ctrl.rdQLenPdf::12                       0                       # What read queue length does an incoming req see (Count)
system.mem_ctrl.rdQLenPdf::13                       0                       # What read queue length does an incoming req see (Count)
system.mem_ctrl.rdQLenPdf::14                       0                       # What read queue length does an incoming req see (Count)
system.mem_ctrl.rdQLenPdf::15                       0                       # What read queue length does an incoming req see (Count)
system.mem_ctrl.rdQLenPdf::16                       0                       # What read queue length does an incoming req see (Count)
system.mem_ctrl.rdQLenPdf::17                       0                       # What read queue length does an incoming req see (Count)
system.mem_ctrl.rdQLenPdf::18                       0                       # What read queue length does an incoming req see (Count)
system.mem_ctrl.rdQLenPdf::19                       0                       # What read queue length does an incoming req see (Count)
system.mem_ctrl.rdQLenPdf::20                       0                       # What read queue length does an incoming req see (Count)
system.mem_ctrl.rdQLenPdf::21                       0                       # What read queue length does an incoming req see (Count)
system.mem_ctrl.rdQLenPdf::22                       0                       # What read queue length does an incoming req see (Count)
system.mem_ctrl.rdQLenPdf::23                       0                       # What read queue length does an incoming req see (Count)
system.mem_ctrl.rdQLenPdf::24                       0                       # What read queue length does an incoming req see (Count)
system.mem_ctrl.rdQLenPdf::25                       0                       # What read queue length does an incoming req see (Count)
system.mem_ctrl.rdQLenPdf::26                       0                       # What read queue length does an incoming req see (Count)
system.mem_ctrl.rdQLenPdf::27                       0                       # What read queue length does an incoming req see (Count)
system.mem_ctrl.rdQLenPdf::28                       0                       # What read queue length does an incoming req see (Count)
system.mem_ctrl.rdQLenPdf::29                       0                       # What read queue length does an incoming req see (Count)
system.mem_ctrl.rdQLenPdf::30                       0                       # What read queue length does an incoming req see (Count)
system.mem_ctrl.rdQLenPdf::31                       0                       # What read queue length does an incoming req see (Count)
system.mem_ctrl.wrQLenPdf::0                        1                       # What write queue length does an incoming req see (Count)
system.mem_ctrl.wrQLenPdf::1                        1                       # What write queue length does an incoming req see (Count)
system.mem_ctrl.wrQLenPdf::2                        1                       # What write queue length does an incoming req see (Count)
system.mem_ctrl.wrQLenPdf::3                        1                       # What write queue length does an incoming req see (Count)
system.mem_ctrl.wrQLenPdf::4                        1                       # What write queue length does an incoming req see (Count)
system.mem_ctrl.wrQLenPdf::5                        1                       # What write queue length does an incoming req see (Count)
system.mem_ctrl.wrQLenPdf::6                        1                       # What write queue length does an incoming req see (Count)
system.mem_ctrl.wrQLenPdf::7                        1                       # What write queue length does an incoming req see (Count)
system.mem_ctrl.wrQLenPdf::8                        1                       # What write queue length does an incoming req see (Count)
system.mem_ctrl.wrQLenPdf::9                        1                       # What write queue length does an incoming req see (Count)
system.mem_ctrl.wrQLenPdf::10                       1                       # What write queue length does an incoming req see (Count)
system.mem_ctrl.wrQLenPdf::11                       1                       # What write queue length does an incoming req see (Count)
system.mem_ctrl.wrQLenPdf::12                       1                       # What write queue length does an incoming req see (Count)
system.mem_ctrl.wrQLenPdf::13                       1                       # What write queue length does an incoming req see (Count)
system.mem_ctrl.wrQLenPdf::14                       1                       # What write queue length does an incoming req see (Count)
system.mem_ctrl.wrQLenPdf::15                   13938                       # What write queue length does an incoming req see (Count)
system.mem_ctrl.wrQLenPdf::16                   14047                       # What write queue length does an incoming req see (Count)
system.mem_ctrl.wrQLenPdf::17                   14096                       # What write queue length does an incoming req see (Count)
system.mem_ctrl.wrQLenPdf::18                   14096                       # What write queue length does an incoming req see (Count)
system.mem_ctrl.wrQLenPdf::19                   14096                       # What write queue length does an incoming req see (Count)
system.mem_ctrl.wrQLenPdf::20                   14096                       # What write queue length does an incoming req see (Count)
system.mem_ctrl.wrQLenPdf::21                   14097                       # What write queue length does an incoming req see (Count)
system.mem_ctrl.wrQLenPdf::22                   14096                       # What write queue length does an incoming req see (Count)
system.mem_ctrl.wrQLenPdf::23                   14096                       # What write queue length does an incoming req see (Count)
system.mem_ctrl.wrQLenPdf::24                   14096                       # What write queue length does an incoming req see (Count)
system.mem_ctrl.wrQLenPdf::25                   14096                       # What write queue length does an incoming req see (Count)
system.mem_ctrl.wrQLenPdf::26                   14097                       # What write queue length does an incoming req see (Count)
system.mem_ctrl.wrQLenPdf::27                   14096                       # What write queue length does an incoming req see (Count)
system.mem_ctrl.wrQLenPdf::28                   14095                       # What write queue length does an incoming req see (Count)
system.mem_ctrl.wrQLenPdf::29                   14095                       # What write queue length does an incoming req see (Count)
system.mem_ctrl.wrQLenPdf::30                   14095                       # What write queue length does an incoming req see (Count)
system.mem_ctrl.wrQLenPdf::31                   14095                       # What write queue length does an incoming req see (Count)
system.mem_ctrl.wrQLenPdf::32                   14095                       # What write queue length does an incoming req see (Count)
system.mem_ctrl.wrQLenPdf::33                       0                       # What write queue length does an incoming req see (Count)
system.mem_ctrl.wrQLenPdf::34                       0                       # What write queue length does an incoming req see (Count)
system.mem_ctrl.wrQLenPdf::35                       0                       # What write queue length does an incoming req see (Count)
system.mem_ctrl.wrQLenPdf::36                       0                       # What write queue length does an incoming req see (Count)
system.mem_ctrl.wrQLenPdf::37                       0                       # What write queue length does an incoming req see (Count)
system.mem_ctrl.wrQLenPdf::38                       0                       # What write queue length does an incoming req see (Count)
system.mem_ctrl.wrQLenPdf::39                       0                       # What write queue length does an incoming req see (Count)
system.mem_ctrl.wrQLenPdf::40                       0                       # What write queue length does an incoming req see (Count)
system.mem_ctrl.wrQLenPdf::41                       0                       # What write queue length does an incoming req see (Count)
system.mem_ctrl.wrQLenPdf::42                       0                       # What write queue length does an incoming req see (Count)
system.mem_ctrl.wrQLenPdf::43                       0                       # What write queue length does an incoming req see (Count)
system.mem_ctrl.wrQLenPdf::44                       0                       # What write queue length does an incoming req see (Count)
system.mem_ctrl.wrQLenPdf::45                       0                       # What write queue length does an incoming req see (Count)
system.mem_ctrl.wrQLenPdf::46                       0                       # What write queue length does an incoming req see (Count)
system.mem_ctrl.wrQLenPdf::47                       0                       # What write queue length does an incoming req see (Count)
system.mem_ctrl.wrQLenPdf::48                       0                       # What write queue length does an incoming req see (Count)
system.mem_ctrl.wrQLenPdf::49                       0                       # What write queue length does an incoming req see (Count)
system.mem_ctrl.wrQLenPdf::50                       0                       # What write queue length does an incoming req see (Count)
system.mem_ctrl.wrQLenPdf::51                       0                       # What write queue length does an incoming req see (Count)
system.mem_ctrl.wrQLenPdf::52                       0                       # What write queue length does an incoming req see (Count)
system.mem_ctrl.wrQLenPdf::53                       0                       # What write queue length does an incoming req see (Count)
system.mem_ctrl.wrQLenPdf::54                       0                       # What write queue length does an incoming req see (Count)
system.mem_ctrl.wrQLenPdf::55                       0                       # What write queue length does an incoming req see (Count)
system.mem_ctrl.wrQLenPdf::56                       0                       # What write queue length does an incoming req see (Count)
system.mem_ctrl.wrQLenPdf::57                       0                       # What write queue length does an incoming req see (Count)
system.mem_ctrl.wrQLenPdf::58                       0                       # What write queue length does an incoming req see (Count)
system.mem_ctrl.wrQLenPdf::59                       0                       # What write queue length does an incoming req see (Count)
system.mem_ctrl.wrQLenPdf::60                       0                       # What write queue length does an incoming req see (Count)
system.mem_ctrl.wrQLenPdf::61                       0                       # What write queue length does an incoming req see (Count)
system.mem_ctrl.wrQLenPdf::62                       0                       # What write queue length does an incoming req see (Count)
system.mem_ctrl.wrQLenPdf::63                       0                       # What write queue length does an incoming req see (Count)
system.mem_ctrl.rdPerTurnAround::samples        14095                       # Reads before turning the bus around for writes (Count)
system.mem_ctrl.rdPerTurnAround::mean       57.999149                       # Reads before turning the bus around for writes (Count)
system.mem_ctrl.rdPerTurnAround::gmean      48.987043                       # Reads before turning the bus around for writes (Count)
system.mem_ctrl.rdPerTurnAround::stdev      74.830004                       # Reads before turning the bus around for writes (Count)
system.mem_ctrl.rdPerTurnAround::0-127          13867     98.38%     98.38% # Reads before turning the bus around for writes (Count)
system.mem_ctrl.rdPerTurnAround::128-255          121      0.86%     99.24% # Reads before turning the bus around for writes (Count)
system.mem_ctrl.rdPerTurnAround::256-383           43      0.31%     99.55% # Reads before turning the bus around for writes (Count)
system.mem_ctrl.rdPerTurnAround::384-511           24      0.17%     99.72% # Reads before turning the bus around for writes (Count)
system.mem_ctrl.rdPerTurnAround::512-639           10      0.07%     99.79% # Reads before turning the bus around for writes (Count)
system.mem_ctrl.rdPerTurnAround::640-767           10      0.07%     99.86% # Reads before turning the bus around for writes (Count)
system.mem_ctrl.rdPerTurnAround::768-895            4      0.03%     99.89% # Reads before turning the bus around for writes (Count)
system.mem_ctrl.rdPerTurnAround::896-1023            3      0.02%     99.91% # Reads before turning the bus around for writes (Count)
system.mem_ctrl.rdPerTurnAround::1024-1151            2      0.01%     99.92% # Reads before turning the bus around for writes (Count)
system.mem_ctrl.rdPerTurnAround::1152-1279            3      0.02%     99.94% # Reads before turning the bus around for writes (Count)
system.mem_ctrl.rdPerTurnAround::1408-1535            1      0.01%     99.95% # Reads before turning the bus around for writes (Count)
system.mem_ctrl.rdPerTurnAround::2048-2175            2      0.01%     99.96% # Reads before turning the bus around for writes (Count)
system.mem_ctrl.rdPerTurnAround::2304-2431            1      0.01%     99.97% # Reads before turning the bus around for writes (Count)
system.mem_ctrl.rdPerTurnAround::2560-2687            2      0.01%     99.99% # Reads before turning the bus around for writes (Count)
system.mem_ctrl.rdPerTurnAround::2688-2815            1      0.01%     99.99% # Reads before turning the bus around for writes (Count)
system.mem_ctrl.rdPerTurnAround::3200-3327            1      0.01%    100.00% # Reads before turning the bus around for writes (Count)
system.mem_ctrl.rdPerTurnAround::total          14095                       # Reads before turning the bus around for writes (Count)
system.mem_ctrl.wrPerTurnAround::samples        14095                       # Writes before turning the bus around for reads (Count)
system.mem_ctrl.wrPerTurnAround::mean       17.985456                       # Writes before turning the bus around for reads (Count)
system.mem_ctrl.wrPerTurnAround::gmean      17.984818                       # Writes before turning the bus around for reads (Count)
system.mem_ctrl.wrPerTurnAround::stdev       0.146870                       # Writes before turning the bus around for reads (Count)
system.mem_ctrl.wrPerTurnAround::16                49      0.35%      0.35% # Writes before turning the bus around for reads (Count)
system.mem_ctrl.wrPerTurnAround::17               109      0.77%      1.12% # Writes before turning the bus around for reads (Count)
system.mem_ctrl.wrPerTurnAround::18             13935     98.86%     99.99% # Writes before turning the bus around for reads (Count)
system.mem_ctrl.wrPerTurnAround::19                 2      0.01%    100.00% # Writes before turning the bus around for reads (Count)
system.mem_ctrl.wrPerTurnAround::total          14095                       # Writes before turning the bus around for reads (Count)
system.mem_ctrl.bytesReadWrQ                 19887616                       # Total number of bytes read from write queue (Byte)
system.mem_ctrl.bytesReadSys                 72211008                       # Total read bytes from the system interface side (Byte)
system.mem_ctrl.bytesWrittenSys              29276160                       # Total written bytes from the system interface side (Byte)
system.mem_ctrl.avgRdBWSys               35676178.81965616                       # Average system read bandwidth in Byte/s ((Byte/Second))
system.mem_ctrl.avgWrBWSys               14464020.76692884                       # Average system write bandwidth in Byte/s ((Byte/Second))
system.mem_ctrl.totGap                   2024067690376                       # Total gap between requests (Tick)
system.mem_ctrl.avgGap                     1276420.80                       # Average gap between requests ((Tick/Count))
system.mem_ctrl.requestorReadBytes::cpu.inst      5113408                       # Per-requestor bytes read from memory (Byte)
system.mem_ctrl.requestorReadBytes::cpu.data     47209984                       # Per-requestor bytes read from memory (Byte)
system.mem_ctrl.requestorWriteBytes::writebacks     16224320                       # Per-requestor bytes write to memory (Byte)
system.mem_ctrl.requestorReadRate::cpu.inst 2526302.612835156266                       # Per-requestor bytes read from memory rate ((Byte/Second))
system.mem_ctrl.requestorReadRate::cpu.data 23324308.549426510930                       # Per-requestor bytes read from memory rate ((Byte/Second))
system.mem_ctrl.requestorWriteRate::writebacks 8015699.511455702595                       # Per-requestor bytes write to memory rate ((Byte/Second))
system.mem_ctrl.requestorReadAccesses::cpu.inst        79897                       # Per-requestor read serviced memory accesses (Count)
system.mem_ctrl.requestorReadAccesses::cpu.data      1048400                       # Per-requestor read serviced memory accesses (Count)
system.mem_ctrl.requestorWriteAccesses::writebacks       457440                       # Per-requestor write serviced memory accesses (Count)
system.mem_ctrl.requestorReadTotalLat::cpu.inst   2844161037                       # Per-requestor read total memory access latency (Tick)
system.mem_ctrl.requestorReadTotalLat::cpu.data  24827200365                       # Per-requestor read total memory access latency (Tick)
system.mem_ctrl.requestorWriteTotalLat::writebacks 49036349115372                       # Per-requestor write total memory access latency (Tick)
system.mem_ctrl.requestorReadAvgLat::cpu.inst     35597.85                       # Per-requestor read average memory access latency ((Tick/Count))
system.mem_ctrl.requestorReadAvgLat::cpu.data     23681.04                       # Per-requestor read average memory access latency ((Tick/Count))
system.mem_ctrl.requestorWriteAvgLat::writebacks 107197335.42                       # Per-requestor write average memory access latency ((Tick/Count))
system.mem_ctrl.dram.bytesRead::cpu.inst      5113408                       # Number of bytes read from this memory (Byte)
system.mem_ctrl.dram.bytesRead::cpu.data     67097600                       # Number of bytes read from this memory (Byte)
system.mem_ctrl.dram.bytesRead::total        72211008                       # Number of bytes read from this memory (Byte)
system.mem_ctrl.dram.bytesInstRead::cpu.inst      5113408                       # Number of instructions bytes read from this memory (Byte)
system.mem_ctrl.dram.bytesInstRead::total      5113408                       # Number of instructions bytes read from this memory (Byte)
system.mem_ctrl.dram.bytesWritten::writebacks     29276160                       # Number of bytes written to this memory (Byte)
system.mem_ctrl.dram.bytesWritten::total     29276160                       # Number of bytes written to this memory (Byte)
system.mem_ctrl.dram.numReads::cpu.inst         79897                       # Number of read requests responded to by this memory (Count)
system.mem_ctrl.dram.numReads::cpu.data       1048400                       # Number of read requests responded to by this memory (Count)
system.mem_ctrl.dram.numReads::total          1128297                       # Number of read requests responded to by this memory (Count)
system.mem_ctrl.dram.numWrites::writebacks       457440                       # Number of write requests responded to by this memory (Count)
system.mem_ctrl.dram.numWrites::total          457440                       # Number of write requests responded to by this memory (Count)
system.mem_ctrl.dram.bwRead::cpu.inst         2526303                       # Total read bandwidth from this memory ((Byte/Second))
system.mem_ctrl.dram.bwRead::cpu.data        33149876                       # Total read bandwidth from this memory ((Byte/Second))
system.mem_ctrl.dram.bwRead::total           35676179                       # Total read bandwidth from this memory ((Byte/Second))
system.mem_ctrl.dram.bwInstRead::cpu.inst      2526303                       # Instruction read bandwidth from this memory ((Byte/Second))
system.mem_ctrl.dram.bwInstRead::total        2526303                       # Instruction read bandwidth from this memory ((Byte/Second))
system.mem_ctrl.dram.bwWrite::writebacks     14464021                       # Write bandwidth from this memory ((Byte/Second))
system.mem_ctrl.dram.bwWrite::total          14464021                       # Write bandwidth from this memory ((Byte/Second))
system.mem_ctrl.dram.bwTotal::writebacks     14464021                       # Total bandwidth to/from this memory ((Byte/Second))
system.mem_ctrl.dram.bwTotal::cpu.inst        2526303                       # Total bandwidth to/from this memory ((Byte/Second))
system.mem_ctrl.dram.bwTotal::cpu.data       33149876                       # Total bandwidth to/from this memory ((Byte/Second))
system.mem_ctrl.dram.bwTotal::total          50140200                       # Total bandwidth to/from this memory ((Byte/Second))
system.mem_ctrl.dram.readBursts                817553                       # Number of DRAM read bursts (Count)
system.mem_ctrl.dram.writeBursts               253505                       # Number of DRAM write bursts (Count)
system.mem_ctrl.dram.perBankRdBursts::0         52643                       # Per bank write bursts (Count)
system.mem_ctrl.dram.perBankRdBursts::1        137189                       # Per bank write bursts (Count)
system.mem_ctrl.dram.perBankRdBursts::2         55210                       # Per bank write bursts (Count)
system.mem_ctrl.dram.perBankRdBursts::3         15749                       # Per bank write bursts (Count)
system.mem_ctrl.dram.perBankRdBursts::4         14023                       # Per bank write bursts (Count)
system.mem_ctrl.dram.perBankRdBursts::5         26928                       # Per bank write bursts (Count)
system.mem_ctrl.dram.perBankRdBursts::6         16046                       # Per bank write bursts (Count)
system.mem_ctrl.dram.perBankRdBursts::7         22571                       # Per bank write bursts (Count)
system.mem_ctrl.dram.perBankRdBursts::8        223625                       # Per bank write bursts (Count)
system.mem_ctrl.dram.perBankRdBursts::9         48343                       # Per bank write bursts (Count)
system.mem_ctrl.dram.perBankRdBursts::10        81376                       # Per bank write bursts (Count)
system.mem_ctrl.dram.perBankRdBursts::11        33915                       # Per bank write bursts (Count)
system.mem_ctrl.dram.perBankRdBursts::12        16699                       # Per bank write bursts (Count)
system.mem_ctrl.dram.perBankRdBursts::13        15220                       # Per bank write bursts (Count)
system.mem_ctrl.dram.perBankRdBursts::14        37717                       # Per bank write bursts (Count)
system.mem_ctrl.dram.perBankRdBursts::15        20299                       # Per bank write bursts (Count)
system.mem_ctrl.dram.perBankWrBursts::0          3069                       # Per bank write bursts (Count)
system.mem_ctrl.dram.perBankWrBursts::1          5436                       # Per bank write bursts (Count)
system.mem_ctrl.dram.perBankWrBursts::2         22153                       # Per bank write bursts (Count)
system.mem_ctrl.dram.perBankWrBursts::3          2698                       # Per bank write bursts (Count)
system.mem_ctrl.dram.perBankWrBursts::4          2803                       # Per bank write bursts (Count)
system.mem_ctrl.dram.perBankWrBursts::5          2714                       # Per bank write bursts (Count)
system.mem_ctrl.dram.perBankWrBursts::6          2647                       # Per bank write bursts (Count)
system.mem_ctrl.dram.perBankWrBursts::7          2811                       # Per bank write bursts (Count)
system.mem_ctrl.dram.perBankWrBursts::8         94886                       # Per bank write bursts (Count)
system.mem_ctrl.dram.perBankWrBursts::9         24532                       # Per bank write bursts (Count)
system.mem_ctrl.dram.perBankWrBursts::10        36321                       # Per bank write bursts (Count)
system.mem_ctrl.dram.perBankWrBursts::11        10344                       # Per bank write bursts (Count)
system.mem_ctrl.dram.perBankWrBursts::12         3328                       # Per bank write bursts (Count)
system.mem_ctrl.dram.perBankWrBursts::13         3129                       # Per bank write bursts (Count)
system.mem_ctrl.dram.perBankWrBursts::14        33808                       # Per bank write bursts (Count)
system.mem_ctrl.dram.perBankWrBursts::15         2826                       # Per bank write bursts (Count)
system.mem_ctrl.dram.totQLat              12342242652                       # Total ticks spent queuing (Tick)
system.mem_ctrl.dram.totBusLat             4087765000                       # Total ticks spent in databus transfers (Tick)
system.mem_ctrl.dram.totMemAccLat         27671361402                       # Total ticks spent from burst creation until serviced by the DRAM (Tick)
system.mem_ctrl.dram.avgQLat                 15096.57                       # Average queueing delay per DRAM burst ((Tick/Count))
system.mem_ctrl.dram.avgBusLat                5000.00                       # Average bus latency per DRAM burst ((Tick/Count))
system.mem_ctrl.dram.avgMemAccLat            33846.57                       # Average memory access latency per DRAM burst ((Tick/Count))
system.mem_ctrl.dram.readRowHits               274131                       # Number of row buffer hits during reads (Count)
[...]
system.mem_ctrl.dram.bwRead::cpu.data        15197228                       # Total read bandwidth from this memory ((Byte/Second))
system.mem_ctrl.dram.bwRead::total           90934006                       # Total read bandwidth from this memory ((Byte/Second))
system.mem_ctrl.dram.bwInstRead::cpu.inst     75736778                       # Instruction read bandwidth from this memory ((Byte/Second))
system.mem_ctrl.dram.bwInstRead::total       75736778                       # Instruction read bandwidth from this memory ((Byte/Second))
system.mem_ctrl.dram.bwWrite::writebacks      6069226                       # Write bandwidth from this memory ((Byte/Second))
system.mem_ctrl.dram.bwWrite::total           6069226                       # Write bandwidth from this memory ((Byte/Second))
system.mem_ctrl.dram.bwTotal::writebacks      6069226                       # Total bandwidth to/from this memory ((Byte/Second))
system.mem_ctrl.dram.bwTotal::cpu.inst       75736778                       # Total bandwidth to/from this memory ((Byte/Second))
system.mem_ctrl.dram.bwTotal::cpu.data       15197228                       # Total bandwidth to/from this memory ((Byte/Second))
system.mem_ctrl.dram.bwTotal::total          97003232                       # Total bandwidth to/from this memory ((Byte/Second))
system.mem_ctrl.dram.readBursts                396334                       # Number of DRAM read bursts (Count)
system.mem_ctrl.dram.writeBursts                15225                       # Number of DRAM write bursts (Count)
system.mem_ctrl.dram.perBankRdBursts::0         36139                       # Per bank write bursts (Count)
system.mem_ctrl.dram.perBankRdBursts::1          2312                       # Per bank write bursts (Count)
system.mem_ctrl.dram.perBankRdBursts::2         10342                       # Per bank write bursts (Count)
system.mem_ctrl.dram.perBankRdBursts::3          1656                       # Per bank write bursts (Count)
system.mem_ctrl.dram.perBankRdBursts::4          1225                       # Per bank write bursts (Count)
system.mem_ctrl.dram.perBankRdBursts::5          4169                       # Per bank write bursts (Count)
system.mem_ctrl.dram.perBankRdBursts::6          3490                       # Per bank write bursts (Count)
system.mem_ctrl.dram.perBankRdBursts::7         59855                       # Per bank write bursts (Count)
system.mem_ctrl.dram.perBankRdBursts::8        122633                       # Per bank write bursts (Count)
system.mem_ctrl.dram.perBankRdBursts::9         54825                       # Per bank write bursts (Count)
system.mem_ctrl.dram.perBankRdBursts::10        44012                       # Per bank write bursts (Count)
system.mem_ctrl.dram.perBankRdBursts::11         3677                       # Per bank write bursts (Count)
system.mem_ctrl.dram.perBankRdBursts::12         3373                       # Per bank write bursts (Count)
system.mem_ctrl.dram.perBankRdBursts::13         2126                       # Per bank write bursts (Count)
system.mem_ctrl.dram.perBankRdBursts::14        34869                       # Per bank write bursts (Count)
system.mem_ctrl.dram.perBankRdBursts::15        11631                       # Per bank write bursts (Count)
system.mem_ctrl.dram.perBankWrBursts::0           779                       # Per bank write bursts (Count)
system.mem_ctrl.dram.perBankWrBursts::1           603                       # Per bank write bursts (Count)
system.mem_ctrl.dram.perBankWrBursts::2           627                       # Per bank write bursts (Count)
system.mem_ctrl.dram.perBankWrBursts::3           485                       # Per bank write bursts (Count)
system.mem_ctrl.dram.perBankWrBursts::4           410                       # Per bank write bursts (Count)
system.mem_ctrl.dram.perBankWrBursts::5           428                       # Per bank write bursts (Count)
system.mem_ctrl.dram.perBankWrBursts::6           435                       # Per bank write bursts (Count)
system.mem_ctrl.dram.perBankWrBursts::7           428                       # Per bank write bursts (Count)
system.mem_ctrl.dram.perBankWrBursts::8          1850                       # Per bank write bursts (Count)
system.mem_ctrl.dram.perBankWrBursts::9          3654                       # Per bank write bursts (Count)
system.mem_ctrl.dram.perBankWrBursts::10          940                       # Per bank write bursts (Count)
system.mem_ctrl.dram.perBankWrBursts::11          959                       # Per bank write bursts (Count)
system.mem_ctrl.dram.perBankWrBursts::12         1040                       # Per bank write bursts (Count)
system.mem_ctrl.dram.perBankWrBursts::13          854                       # Per bank write bursts (Count)
system.mem_ctrl.dram.perBankWrBursts::14         1183                       # Per bank write bursts (Count)
system.mem_ctrl.dram.perBankWrBursts::15          550                       # Per bank write bursts (Count)
system.mem_ctrl.dram.totQLat               4135979095                       # Total ticks spent queuing (Tick)
system.mem_ctrl.dram.totBusLat             1981670000                       # Total ticks spent in databus transfers (Tick)
system.mem_ctrl.dram.totMemAccLat         11567241595                       # Total ticks spent from burst creation until serviced by the DRAM (Tick)
system.mem_ctrl.dram.avgQLat                 10435.59                       # Average queueing delay per DRAM burst ((Tick/Count))
system.mem_ctrl.dram.avgBusLat                5000.00                       # Average bus latency per DRAM burst ((Tick/Count))
system.mem_ctrl.dram.avgMemAccLat            29185.59                       # Average memory access latency per DRAM burst ((Tick/Count))
system.mem_ctrl.dram.readRowHits               245957                       # Number of row buffer hits during reads (Count)
system.mem_ctrl.dram.writeRowHits               13461                       # Number of row buffer hits during writes (Count)
system.mem_ctrl.dram.readRowHitRate             62.06                       # Row buffer hit rate for reads (Ratio)
system.mem_ctrl.dram.writeRowHitRate            88.41                       # Row buffer hit rate for writes (Ratio)
system.mem_ctrl.dram.bytesPerActivate::samples       152140                       # Bytes accessed per row activation (Byte)
system.mem_ctrl.dram.bytesPerActivate::mean   173.125595                       # Bytes accessed per row activation (Byte)
system.mem_ctrl.dram.bytesPerActivate::gmean   128.313778                       # Bytes accessed per row activation (Byte)
system.mem_ctrl.dram.bytesPerActivate::stdev   148.558031                       # Bytes accessed per row activation (Byte)
system.mem_ctrl.dram.bytesPerActivate::0-127        73056     48.02%     48.02% # Bytes accessed per row activation (Byte)
system.mem_ctrl.dram.bytesPerActivate::128-255        36906     24.26%     72.28% # Bytes accessed per row activation (Byte)
system.mem_ctrl.dram.bytesPerActivate::256-383        23224     15.26%     87.54% # Bytes accessed per row activation (Byte)
system.mem_ctrl.dram.bytesPerActivate::384-511        12200      8.02%     95.56% # Bytes accessed per row activation (Byte)
system.mem_ctrl.dram.bytesPerActivate::512-639         4259      2.80%     98.36% # Bytes accessed per row activation (Byte)
system.mem_ctrl.dram.bytesPerActivate::640-767         1675      1.10%     99.46% # Bytes accessed per row activation (Byte)
system.mem_ctrl.dram.bytesPerActivate::768-895          186      0.12%     99.58% # Bytes accessed per row activation (Byte)
system.mem_ctrl.dram.bytesPerActivate::896-1023          120      0.08%     99.66% # Bytes accessed per row activation (Byte)
system.mem_ctrl.dram.bytesPerActivate::1024-1151          514      0.34%    100.00% # Bytes accessed per row activation (Byte)
system.mem_ctrl.dram.bytesPerActivate::total       152140                       # Bytes accessed per row activation (Byte)
system.mem_ctrl.dram.dramBytesRead           25365376                       # Total bytes read (Byte)
system.mem_ctrl.dram.dramBytesWritten          974400                       # Total bytes written (Byte)
system.mem_ctrl.dram.avgRdBW                87.461022                       # Average DRAM read bandwidth in MiBytes/s ((Byte/Second))
system.mem_ctrl.dram.avgWrBW                 3.359778                       # Average DRAM write bandwidth in MiBytes/s ((Byte/Second))
system.mem_ctrl.dram.peakBW                  12800.00                       # Theoretical peak bandwidth in MiByte/s ((Byte/Second))
system.mem_ctrl.dram.busUtil                     0.71                       # Data bus utilization in percentage (Ratio)
system.mem_ctrl.dram.busUtilRead                 0.68                       # Data bus utilization in percentage for reads (Ratio)
system.mem_ctrl.dram.busUtilWrite                0.03                       # Data bus utilization in percentage for writes (Ratio)
system.mem_ctrl.dram.pageHitRate                63.03                       # Row buffer hit rate, read and write combined (Ratio)
system.mem_ctrl.dram.power_state.pwrStateResidencyTicks::UNDEFINED 290019202672                       # Cumulative time (in ticks) in various power states (Tick)
system.mem_ctrl.dram.rank0.actEnergy        386402520                       # Energy for activate commands per rank (pJ) (Joule)
system.mem_ctrl.dram.rank0.preEnergy        205374015                       # Energy for precharge commands per rank (pJ) (Joule)
system.mem_ctrl.dram.rank0.readEnergy       851002320                       # Energy for read commands per rank (pJ) (Joule)
system.mem_ctrl.dram.rank0.writeEnergy       21897900                       # Energy for write commands per rank (pJ) (Joule)
system.mem_ctrl.dram.rank0.refreshEnergy 22893496080.000004                       # Energy for refresh commands per rank (pJ) (Joule)
system.mem_ctrl.dram.rank0.actBackEnergy  69838370490                       # Energy for active background per rank (pJ) (Joule)
system.mem_ctrl.dram.rank0.preBackEnergy  52556114400                       # Energy for precharge background per rank (pJ) (Joule)
system.mem_ctrl.dram.rank0.actPowerDownEnergy            0                       # Energy for active power-down per rank (pJ) (Joule)
system.mem_ctrl.dram.rank0.prePowerDownEnergy            0                       # Energy for precharge power-down per rank (pJ) (Joule)
system.mem_ctrl.dram.rank0.selfRefreshEnergy            0                       # Energy for self refresh per rank (pJ) (Joule)
system.mem_ctrl.dram.rank0.totalEnergy   146752657725                       # Total energy per rank (pJ) (Joule)
system.mem_ctrl.dram.rank0.averagePower    506.010141                       # Core power per rank (mW) (Watt)
system.mem_ctrl.dram.rank0.totalIdleTime            0                       # Total Idle time Per DRAM Rank (Tick)
system.mem_ctrl.dram.rank0.pwrStateTime::IDLE 135956996863                       # Time in different power states (Tick)
system.mem_ctrl.dram.rank0.pwrStateTime::REF   9684220000                       # Time in different power states (Tick)
system.mem_ctrl.dram.rank0.pwrStateTime::SREF            0                       # Time in different power states (Tick)
system.mem_ctrl.dram.rank0.pwrStateTime::PRE_PDN            0                       # Time in different power states (Tick)
system.mem_ctrl.dram.rank0.pwrStateTime::ACT 144377985809                       # Time in different power states (Tick)
system.mem_ctrl.dram.rank0.pwrStateTime::ACT_PDN            0                       # Time in different power states (Tick)
system.mem_ctrl.dram.rank1.actEnergy        699884220                       # Energy for activate commands per rank (pJ) (Joule)
system.mem_ctrl.dram.rank1.preEnergy        371997285                       # Energy for precharge commands per rank (pJ) (Joule)
system.mem_ctrl.dram.rank1.readEnergy      1978822440                       # Energy for read commands per rank (pJ) (Joule)
system.mem_ctrl.dram.rank1.writeEnergy       57576600                       # Energy for write commands per rank (pJ) (Joule)
system.mem_ctrl.dram.rank1.refreshEnergy 22893496080.000004                       # Energy for refresh commands per rank (pJ) (Joule)
system.mem_ctrl.dram.rank1.actBackEnergy 102314388960                       # Energy for active background per rank (pJ) (Joule)
system.mem_ctrl.dram.rank1.preBackEnergy  25207888320                       # Energy for precharge background per rank (pJ) (Joule)
system.mem_ctrl.dram.rank1.actPowerDownEnergy            0                       # Energy for active power-down per rank (pJ) (Joule)
system.mem_ctrl.dram.rank1.prePowerDownEnergy            0                       # Energy for precharge power-down per rank (pJ) (Joule)
system.mem_ctrl.dram.rank1.selfRefreshEnergy            0                       # Energy for self refresh per rank (pJ) (Joule)
system.mem_ctrl.dram.rank1.totalEnergy   153524053905                       # Total energy per rank (pJ) (Joule)
system.mem_ctrl.dram.rank1.averagePower    529.358237                       # Core power per rank (mW) (Watt)
system.mem_ctrl.dram.rank1.totalIdleTime            0                       # Total Idle time Per DRAM Rank (Tick)
system.mem_ctrl.dram.rank1.pwrStateTime::IDLE  64623820002                       # Time in different power states (Tick)
system.mem_ctrl.dram.rank1.pwrStateTime::REF   9684220000                       # Time in different power states (Tick)
system.mem_ctrl.dram.rank1.pwrStateTime::SREF            0                       # Time in different power states (Tick)
system.mem_ctrl.dram.rank1.pwrStateTime::PRE_PDN            0                       # Time in different power states (Tick)
system.mem_ctrl.dram.rank1.pwrStateTime::ACT 215711162670                       # Time in different power states (Tick)
system.mem_ctrl.dram.rank1.pwrStateTime::ACT_PDN            0                       # Time in different power states (Tick)
system.mem_ctrl.power_state.pwrStateResidencyTicks::UNDEFINED 290019202672                       # Cumulative time (in ticks) in various power states (Tick)
system.membus.transDist::ReadResp              388380                       # Transaction distribution (Count)
system.membus.transDist::WritebackDirty         27503                       # Transaction distribution (Count)
system.membus.transDist::CleanEvict            384569                       # Transaction distribution (Count)
system.membus.transDist::ReadExReq              23692                       # Transaction distribution (Count)
system.membus.transDist::ReadExResp             23692                       # Transaction distribution (Count)
system.membus.transDist::ReadSharedReq         388380                       # Transaction distribution (Count)
system.membus.pktCount_system.cpu.l1d.mem_side_port::system.mem_ctrl.port       206601                       # Packet count per connected requestor and responder (Count)
system.membus.pktCount_system.cpu.l1d.mem_side_port::total       206601                       # Packet count per connected requestor and responder (Count)
system.membus.pktCount_system.cpu.l1i.mem_side_port::system.mem_ctrl.port      1029615                       # Packet count per connected requestor and responder (Count)
system.membus.pktCount_system.cpu.l1i.mem_side_port::total      1029615                       # Packet count per connected requestor and responder (Count)
system.membus.pktCount::total                 1236216                       # Packet count per connected requestor and responder (Count)
system.membus.pktSize_system.cpu.l1d.mem_side_port::system.mem_ctrl.port      6167680                       # Cumulative packet size per connected requestor and responder (Byte)
system.membus.pktSize_system.cpu.l1d.mem_side_port::total      6167680                       # Cumulative packet size per connected requestor and responder (Byte)
system.membus.pktSize_system.cpu.l1i.mem_side_port::system.mem_ctrl.port     21965120                       # Cumulative packet size per connected requestor and responder (Byte)
system.membus.pktSize_system.cpu.l1i.mem_side_port::total     21965120                       # Cumulative packet size per connected requestor and responder (Byte)
system.membus.pktSize::total                 28132800                       # Cumulative packet size per connected requestor and responder (Byte)
system.membus.snoops                                0                       # Total snoops (Count)
system.membus.snoopTraffic                          0                       # Total snoop traffic (Byte)
system.membus.snoopFanout::samples             412072                       # Request fanout histogram (Count)
system.membus.snoopFanout::mean                     0                       # Request fanout histogram (Count)
system.membus.snoopFanout::stdev                    0                       # Request fanout histogram (Count)
system.membus.snoopFanout::underflows               0      0.00%      0.00% # Request fanout histogram (Count)
system.membus.snoopFanout::0                   412072    100.00%    100.00% # Request fanout histogram (Count)
system.membus.snoopFanout::1                        0      0.00%    100.00% # Request fanout histogram (Count)
system.membus.snoopFanout::2                        0      0.00%    100.00% # Request fanout histogram (Count)
system.membus.snoopFanout::overflows                0      0.00%    100.00% # Request fanout histogram (Count)
system.membus.snoopFanout::min_value                0                       # Request fanout histogram (Count)
system.membus.snoopFanout::max_value                0                       # Request fanout histogram (Count)
system.membus.snoopFanout::total               412072                       # Request fanout histogram (Count)
system.membus.power_state.pwrStateResidencyTicks::UNDEFINED 290019202672                       # Cumulative time (in ticks) in various power states (Tick)
system.membus.reqLayer2.occupancy         12455101948                       # Layer occupancy (ticks) (Tick)
system.membus.reqLayer2.utilization               0.0                       # Layer utilization (Ratio)
system.membus.respLayer2.occupancy         4703944971                       # Layer occupancy (ticks) (Tick)
system.membus.respLayer2.utilization              0.0                       # Layer utilization (Ratio)
system.membus.respLayer3.occupancy        23333054530                       # Layer occupancy (ticks) (Tick)
system.membus.respLayer3.utilization              0.1                       # Layer utilization (Ratio)
system.membus.snoop_filter.totRequests         824144                       # Total number of requests made to the snoop filter. (Count)
system.membus.snoop_filter.hitSingleRequests       412072                       # Number of requests hitting in the snoop filter with a single holder of the requested data. (Count)
system.membus.snoop_filter.hitMultiRequests            0                       # Number of requests hitting in the snoop filter with multiple (>1) holders of the requested data. (Count)
system.membus.snoop_filter.totSnoops                0                       # Total number of snoops made to the snoop filter. (Count)
system.membus.snoop_filter.hitSingleSnoops            0                       # Number of snoops hitting in the snoop filter with a single holder of the requested data. (Count)
system.membus.snoop_filter.hitMultiSnoops            0                       # Number of snoops hitting in the snoop filter with multiple (>1) holders of the requested data. (Count)
system.workload.inst.arm                            0                       # number of arm instructions executed (Count)
system.workload.inst.quiesce                        0                       # number of quiesce instructions executed (Count)

---------- End Simulation Statistics   ----------
