
---------- Begin Simulation Statistics ----------
simSeconds                                   2.417204                       # Number of seconds simulated (Second)
simTicks                                 2417203821727                       # Number of ticks simulated (Tick)
finalTick                                2417203821727                       # Number of ticks from beginning of simulation (restored from checkpoints and never reset) (Tick)
simFreq                                  1000000000000                       # The number of ticks per simulated second ((Tick/Second))
hostSeconds                                   1150.27                       # Real time elapsed on the host (Second)
hostTickRate                               2101425022                       # The number of ticks simulated per host second (ticks/s) ((Tick/Second))
hostMemory                                    8663376                       # Number of bytes of host memory used (Byte)
simInsts                                    188278565                       # Number of instructions simulated (Count)
simOps                                      362329864                       # Number of ops (including micro ops) simulated (Count)
hostInstRate                                   163682                       # Simulator instruction rate (inst/s) ((Count/Second))
hostOpRate                                     314996                       # Simulator op (including micro ops) rate (op/s) ((Count/Second))
system.clk_domain.clock                         13333                       # Clock period in ticks (Tick)
system.clk_domain.voltage_domain.voltage            1                       # Voltage in Volts (Volt)
system.cpu.numCycles                        181294820                       # Number of cpu cycles simulated (Cycle)
system.cpu.cpi                               0.962907                       # CPI: cycles per instruction (core level) ((Cycle/Count))
system.cpu.ipc                               1.038521                       # IPC: instructions per cycle (core level) ((Count/Cycle))
system.cpu.numWorkItemsStarted                      0                       # Number of work items this cpu started (Count)
system.cpu.numWorkItemsCompleted                    0                       # Number of work items this cpu completed (Count)
system.cpu.instsAdded                       527329808                       # Number of instructions added to the IQ (excludes non-spec) (Count)
system.cpu.nonSpecInstsAdded                  5520361                       # Number of non-speculative instructions added to the IQ (Count)
system.cpu.instsIssued                      468261270                       # Number of instructions issued (Count)
system.cpu.squashedInstsIssued                1145133                       # Number of squashed instructions issued (Count)
system.cpu.squashedInstsExamined            170520274                       # Number of squashed instructions iterated over during squash; mainly for profiling (Count)
system.cpu.squashedOperandsExamined         337467386                       # Number of squashed operands that are examined and possibly removed from graph (Count)
system.cpu.squashedNonSpecRemoved             2191741                       # Number of squashed non-spec instructions that were removed (Count)
system.cpu.numIssuedDist::samples           181165509                       # Number of insts issued each cycle (Count)
system.cpu.numIssuedDist::mean               2.584715                       # Number of insts issued each cycle (Count)
system.cpu.numIssuedDist::stdev              2.647531                       # Number of insts issued each cycle (Count)
system.cpu.numIssuedDist::underflows                0      0.00%      0.00% # Number of insts issued each cycle (Count)
system.cpu.numIssuedDist::0                  64338478     35.51%     35.51% # Number of insts issued each cycle (Count)
system.cpu.numIssuedDist::1                  22299673     12.31%     47.82% # Number of insts issued each cycle (Count)
system.cpu.numIssuedDist::2                  15658766      8.64%     56.47% # Number of insts issued each cycle (Count)
system.cpu.numIssuedDist::3                  13964918      7.71%     64.17% # Number of insts issued each cycle (Count)
system.cpu.numIssuedDist::4                  16528554      9.12%     73.30% # Number of insts issued each cycle (Count)
system.cpu.numIssuedDist::5                  14797381      8.17%     81.47% # Number of insts issued each cycle (Count)
system.cpu.numIssuedDist::6                  12903572      7.12%     88.59% # Number of insts issued each cycle (Count)
system.cpu.numIssuedDist::7                  10166578      5.61%     94.20% # Number of insts issued each cycle (Count)
system.cpu.numIssuedDist::8                  10507589      5.80%    100.00% # Number of insts issued each cycle (Count)
system.cpu.numIssuedDist::overflows                 0      0.00%    100.00% # Number of insts issued each cycle (Count)
system.cpu.numIssuedDist::min_value                 0                       # Number of insts issued each cycle (Count)
system.cpu.numIssuedDist::max_value                 8                       # Number of insts issued each cycle (Count)
system.cpu.numIssuedDist::total             181165509                       # Number of insts issued each cycle (Count)
system.cpu.statFuBusy::No_OpClass                   0      0.00%      0.00% # attempts to use FU when none available (Count)
system.cpu.statFuBusy::IntAlu                 4704228     37.48%     37.48% # attempts to use FU when none available (Count)
system.cpu.statFuBusy::IntMult                     13      0.00%     37.48% # attempts to use FU when none available (Count)
system.cpu.statFuBusy::IntDiv                       0      0.00%     37.48% # attempts to use FU when none available (Count)
system.cpu.statFuBusy::FloatAdd                     0      0.00%     37.48% # attempts to use FU when none available (Count)
system.cpu.statFuBusy::FloatCmp                     0      0.00%     37.48% # attempts to use FU when none available (Count)
system.cpu.statFuBusy::FloatCvt                     0      0.00%     37.48% # attempts to use FU when none available (Count)
system.cpu.statFuBusy::FloatMult                    0      0.00%     37.48% # attempts to use FU when none available (Count)
system.cpu.statFuBusy::FloatMultAcc                 0      0.00%     37.48% # attempts to use FU when none available (Count)
system.cpu.statFuBusy::FloatDiv                     0      0.00%     37.48% # attempts to use FU when none available (Count)
system.cpu.statFuBusy::FloatMisc                    0      0.00%     37.48% # attempts to use FU when none available (Count)
system.cpu.statFuBusy::FloatSqrt                    0      0.00%     37.48% # attempts to use FU when none available (Count)
system.cpu.statFuBusy::SimdAdd                     15      0.00%     37.48% # attempts to use FU when none available (Count)
system.cpu.statFuBusy::SimdAddAcc                   0      0.00%     37.48% # attempts to use FU when none available (Count)
system.cpu.statFuBusy::SimdAlu                  14297      0.11%     37.59% # attempts to use FU when none available (Count)
system.cpu.statFuBusy::SimdCmp                      1      0.00%     37.59% # attempts to use FU when none available (Count)
system.cpu.statFuBusy::SimdCvt                    195      0.00%     37.59% # attempts to use FU when none available (Count)
system.cpu.statFuBusy::SimdMisc                    34      0.00%     37.59% # attempts to use FU when none available (Count)
system.cpu.statFuBusy::SimdMult                     0      0.00%     37.59% # attempts to use FU when none available (Count)
system.cpu.statFuBusy::SimdMultAcc                  0      0.00%     37.59% # attempts to use FU when none available (Count)
system.cpu.statFuBusy::SimdMatMultAcc               0      0.00%     37.59% # attempts to use FU when none available (Count)
system.cpu.statFuBusy::SimdShift                   30      0.00%     37.59% # attempts to use FU when none available (Count)
system.cpu.statFuBusy::SimdShiftAcc                 0      0.00%     37.59% # attempts to use FU when none available (Count)
system.cpu.statFuBusy::SimdDiv                      0      0.00%     37.59% # attempts to use FU when none available (Count)
system.cpu.statFuBusy::SimdSqrt                     0      0.00%     37.59% # attempts to use FU when none available (Count)
system.cpu.statFuBusy::SimdFloatAdd                 0      0.00%     37.59% # attempts to use FU when none available (Count)
system.cpu.statFuBusy::SimdFloatAlu                 0      0.00%     37.59% # attempts to use FU when none available (Count)
system.cpu.statFuBusy::SimdFloatCmp                 0      0.00%     37.59% # attempts to use FU when none available (Count)
system.cpu.statFuBusy::SimdFloatCvt                22      0.00%     37.59% # attempts to use FU when none available (Count)
system.cpu.statFuBusy::SimdFloatDiv                 0      0.00%     37.59% # attempts to use FU when none available (Count)
system.cpu.statFuBusy::SimdFloatMisc                0      0.00%     37.59% # attempts to use FU when none available (Count)
system.cpu.statFuBusy::SimdFloatMult                0      0.00%     37.59% # attempts to use FU when none available (Count)
system.cpu.statFuBusy::SimdFloatMultAcc             0      0.00%     37.59% # attempts to use FU when none available (Count)
system.cpu.statFuBusy::SimdFloatMatMultAcc            0      0.00%     37.59% # attempts to use FU when none available (Count)
system.cpu.statFuBusy::SimdFloatSqrt                0      0.00%     37.59% # attempts to use FU when none available (Count)
system.cpu.statFuBusy::SimdReduceAdd                0      0.00%     37.59% # attempts to use FU when none available (Count)
system.cpu.statFuBusy::SimdReduceAlu                0      0.00%     37.59% # attempts to use FU when none available (Count)
system.cpu.statFuBusy::SimdReduceCmp                0      0.00%     37.59% # attempts to use FU when none available (Count)
system.cpu.statFuBusy::SimdFloatReduceAdd            0      0.00%     37.59% # attempts to use FU when none available (Count)
system.cpu.statFuBusy::SimdFloatReduceCmp            0      0.00%     37.59% # attempts to use FU when none available (Count)
system.cpu.statFuBusy::SimdAes                      0      0.00%     37.59% # attempts to use FU when none available (Count)
system.cpu.statFuBusy::SimdAesMix                   0      0.00%     37.59% # attempts to use FU when none available (Count)
system.cpu.statFuBusy::SimdSha1Hash                 0      0.00%     37.59% # attempts to use FU when none available (Count)
system.cpu.statFuBusy::SimdSha1Hash2                0      0.00%     37.59% # attempts to use FU when none available (Count)
system.cpu.statFuBusy::SimdSha256Hash               0      0.00%     37.59% # attempts to use FU when none available (Count)
system.cpu.statFuBusy::SimdSha256Hash2              0      0.00%     37.59% # attempts to use FU when none available (Count)
system.cpu.statFuBusy::SimdShaSigma2                0      0.00%     37.59% # attempts to use FU when none available (Count)
system.cpu.statFuBusy::SimdShaSigma3                0      0.00%     37.59% # attempts to use FU when none available (Count)
system.cpu.statFuBusy::SimdPredAlu                  0      0.00%     37.59% # attempts to use FU when none available (Count)
system.cpu.statFuBusy::Matrix                       0      0.00%     37.59% # attempts to use FU when none available (Count)
system.cpu.statFuBusy::MatrixMov                    0      0.00%     37.59% # attempts to use FU when none available (Count)
system.cpu.statFuBusy::MatrixOP                     0      0.00%     37.59% # attempts to use FU when none available (Count)
system.cpu.statFuBusy::MemRead                4018340     32.01%     69.61% # attempts to use FU when none available (Count)
system.cpu.statFuBusy::MemWrite               2954651     23.54%     93.15% # attempts to use FU when none available (Count)
system.cpu.statFuBusy::FloatMemRead            829700      6.61%     99.76% # attempts to use FU when none available (Count)
system.cpu.statFuBusy::FloatMemWrite            30400      0.24%    100.00% # attempts to use FU when none available (Count)
system.cpu.statFuBusy::IprAccess                    0      0.00%    100.00% # attempts to use FU when none available (Count)
system.cpu.statFuBusy::InstPrefetch                 0      0.00%    100.00% # attempts to use FU when none available (Count)
system.cpu.statFuBusy::SimdUnitStrideLoad            0      0.00%    100.00% # attempts to use FU when none available (Count)
system.cpu.statFuBusy::SimdUnitStrideStore            0      0.00%    100.00% # attempts to use FU when none available (Count)
system.cpu.statFuBusy::SimdUnitStrideMaskLoad            0      0.00%    100.00% # attempts to use FU when none available (Count)
system.cpu.statFuBusy::SimdUnitStrideMaskStore            0      0.00%    100.00% # attempts to use FU when none available (Count)
system.cpu.statFuBusy::SimdStridedLoad              0      0.00%    100.00% # attempts to use FU when none available (Count)
system.cpu.statFuBusy::SimdStridedStore             0      0.00%    100.00% # attempts to use FU when none available (Count)
system.cpu.statFuBusy::SimdIndexedLoad              0      0.00%    100.00% # attempts to use FU when none available (Count)
system.cpu.statFuBusy::SimdIndexedStore             0      0.00%    100.00% # attempts to use FU when none available (Count)
system.cpu.statFuBusy::SimdWholeRegisterLoad            0      0.00%    100.00% # attempts to use FU when none available (Count)
system.cpu.statFuBusy::SimdWholeRegisterStore            0      0.00%    100.00% # attempts to use FU when none available (Count)
system.cpu.statFuBusy::SimdUnitStrideFaultOnlyFirstLoad            0      0.00%    100.00% # attempts to use FU when none available (Count)
system.cpu.statFuBusy::SimdUnitStrideSegmentedLoad            0      0.00%    100.00% # attempts to use FU when none available (Count)
system.cpu.statFuBusy::SimdUnitStrideSegmentedStore            0      0.00%    100.00% # attempts to use FU when none available (Count)
system.cpu.statFuBusy::SimdExt                      0      0.00%    100.00% # attempts to use FU when none available (Count)
system.cpu.statFuBusy::SimdFloatExt                 0      0.00%    100.00% # attempts to use FU when none available (Count)
system.cpu.statFuBusy::SimdConfig                   0      0.00%    100.00% # attempts to use FU when none available (Count)
system.cpu.statIssuedInstType_0::No_OpClass      4587041      0.98%      0.98% # Number of instructions issued per FU type, per thread (Count)
system.cpu.statIssuedInstType_0::IntAlu     339160224     72.43%     73.41% # Number of instructions issued per FU type, per thread (Count)
system.cpu.statIssuedInstType_0::IntMult       250944      0.05%     73.46% # Number of instructions issued per FU type, per thread (Count)
system.cpu.statIssuedInstType_0::IntDiv        887342      0.19%     73.65% # Number of instructions issued per FU type, per thread (Count)
system.cpu.statIssuedInstType_0::FloatAdd     10233255      2.19%     75.84% # Number of instructions issued per FU type, per thread (Count)
system.cpu.statIssuedInstType_0::FloatCmp            0      0.00%     75.84% # Number of instructions issued per FU type, per thread (Count)
system.cpu.statIssuedInstType_0::FloatCvt         1750      0.00%     75.84% # Number of instructions issued per FU type, per thread (Count)
system.cpu.statIssuedInstType_0::FloatMult            0      0.00%     75.84% # Number of instructions issued per FU type, per thread (Count)
system.cpu.statIssuedInstType_0::FloatMultAcc            0      0.00%     75.84% # Number of instructions issued per FU type, per thread (Count)
system.cpu.statIssuedInstType_0::FloatDiv            0      0.00%     75.84% # Number of instructions issued per FU type, per thread (Count)
system.cpu.statIssuedInstType_0::FloatMisc            0      0.00%     75.84% # Number of instructions issued per FU type, per thread (Count)
system.cpu.statIssuedInstType_0::FloatSqrt            0      0.00%     75.84% # Number of instructions issued per FU type, per thread (Count)
system.cpu.statIssuedInstType_0::SimdAdd         7822      0.00%     75.84% # Number of instructions issued per FU type, per thread (Count)
system.cpu.statIssuedInstType_0::SimdAddAcc            0      0.00%     75.84% # Number of instructions issued per FU type, per thread (Count)
system.cpu.statIssuedInstType_0::SimdAlu      1336517      0.29%     76.13% # Number of instructions issued per FU type, per thread (Count)
system.cpu.statIssuedInstType_0::SimdCmp           11      0.00%     76.13% # Number of instructions issued per FU type, per thread (Count)
system.cpu.statIssuedInstType_0::SimdCvt        49413      0.01%     76.14% # Number of instructions issued per FU type, per thread (Count)
system.cpu.statIssuedInstType_0::SimdMisc       612533      0.13%     76.27% # Number of instructions issued per FU type, per thread (Count)
system.cpu.statIssuedInstType_0::SimdMult            0      0.00%     76.27% # Number of instructions issued per FU type, per thread (Count)
system.cpu.statIssuedInstType_0::SimdMultAcc            0      0.00%     76.27% # Number of instructions issued per FU type, per thread (Count)
system.cpu.statIssuedInstType_0::SimdMatMultAcc            0      0.00%     76.27% # Number of instructions issued per FU type, per thread (Count)
system.cpu.statIssuedInstType_0::SimdShift         4372      0.00%     76.27% # Number of instructions issued per FU type, per thread (Count)
system.cpu.statIssuedInstType_0::SimdShiftAcc            0      0.00%     76.27% # Number of instructions issued per FU type, per thread (Count)
system.cpu.statIssuedInstType_0::SimdDiv            0      0.00%     76.27% # Number of instructions issued per FU type, per thread (Count)
system.cpu.statIssuedInstType_0::SimdSqrt            0      0.00%     76.27% # Number of instructions issued per FU type, per thread (Count)
system.cpu.statIssuedInstType_0::SimdFloatAdd        16425      0.00%     76.27% # Number of instructions issued per FU type, per thread (Count)
system.cpu.statIssuedInstType_0::SimdFloatAlu            0      0.00%     76.27% # Number of instructions issued per FU type, per thread (Count)
system.cpu.statIssuedInstType_0::SimdFloatCmp        11256      0.00%     76.27% # Number of instructions issued per FU type, per thread (Count)
system.cpu.statIssuedInstType_0::SimdFloatCvt      4822784      1.03%     77.30% # Number of instructions issued per FU type, per thread (Count)
system.cpu.statIssuedInstType_0::SimdFloatDiv           12      0.00%     77.30% # Number of instructions issued per FU type, per thread (Count)
system.cpu.statIssuedInstType_0::SimdFloatMisc            0      0.00%     77.30% # Number of instructions issued per FU type, per thread (Count)
system.cpu.statIssuedInstType_0::SimdFloatMult       507945      0.11%     77.41% # Number of instructions issued per FU type, per thread (Count)
system.cpu.statIssuedInstType_0::SimdFloatMultAcc            0      0.00%     77.41% # Number of instructions issued per FU type, per thread (Count)
system.cpu.statIssuedInstType_0::SimdFloatMatMultAcc            0      0.00%     77.41% # Number of instructions issued per FU type, per thread (Count)
system.cpu.statIssuedInstType_0::SimdFloatSqrt           18      0.00%     77.41% # Number of instructions issued per FU type, per thread (Count)
system.cpu.statIssuedInstType_0::SimdReduceAdd            0      0.00%     77.41% # Number of instructions issued per FU type, per thread (Count)
system.cpu.statIssuedInstType_0::SimdReduceAlu            0      0.00%     77.41% # Number of instructions issued per FU type, per thread (Count)
system.cpu.statIssuedInstType_0::SimdReduceCmp            0      0.00%     77.41% # Number of instructions issued per FU type, per thread (Count)
system.cpu.statIssuedInstType_0::SimdFloatReduceAdd            0      0.00%     77.41% # Number of instructions issued per FU type, per thread (Count)
system.cpu.statIssuedInstType_0::SimdFloatReduceCmp            0      0.00%     77.41% # Number of instructions issued per FU type, per thread (Count)
system.cpu.statIssuedInstType_0::SimdAes            0      0.00%     77.41% # Number of instructions issued per FU type, per thread (Count)
system.cpu.statIssuedInstType_0::SimdAesMix            0      0.00%     77.41% # Number of instructions issued per FU type, per thread (Count)
system.cpu.statIssuedInstType_0::SimdSha1Hash            0      0.00%     77.41% # Number of instructions issued per FU type, per thread (Count)
system.cpu.statIssuedInstType_0::SimdSha1Hash2            0      0.00%     77.41% # Number of instructions issued per FU type, per thread (Count)
system.cpu.statIssuedInstType_0::SimdSha256Hash            0      0.00%     77.41% # Number of instructions issued per FU type, per thread (Count)
system.cpu.statIssuedInstType_0::SimdSha256Hash2            0      0.00%     77.41% # Number of instructions issued per FU type, per thread (Count)
system.cpu.statIssuedInstType_0::SimdShaSigma2            0      0.00%     77.41% # Number of instructions issued per FU type, per thread (Count)
system.cpu.statIssuedInstType_0::SimdShaSigma3            0      0.00%     77.41% # Number of instructions issued per FU type, per thread (Count)
system.cpu.statIssuedInstType_0::SimdPredAlu            0      0.00%     77.41% # Number of instructions issued per FU type, per thread (Count)
system.cpu.statIssuedInstType_0::Matrix             0      0.00%     77.41% # Number of instructions issued per FU type, per thread (Count)
system.cpu.statIssuedInstType_0::MatrixMov            0      0.00%     77.41% # Number of instructions issued per FU type, per thread (Count)
system.cpu.statIssuedInstType_0::MatrixOP            0      0.00%     77.41% # Number of instructions issued per FU type, per thread (Count)
system.cpu.statIssuedInstType_0::MemRead     61782957     13.19%     90.61% # Number of instructions issued per FU type, per thread (Count)
system.cpu.statIssuedInstType_0::MemWrite     31733720      6.78%     97.38% # Number of instructions issued per FU type, per thread (Count)
system.cpu.statIssuedInstType_0::FloatMemRead     10332283      2.21%     99.59% # Number of instructions issued per FU type, per thread (Count)
system.cpu.statIssuedInstType_0::FloatMemWrite      1922646      0.41%    100.00% # Number of instructions issued per FU type, per thread (Count)
system.cpu.statIssuedInstType_0::IprAccess            0      0.00%    100.00% # Number of instructions issued per FU type, per thread (Count)
system.cpu.statIssuedInstType_0::InstPrefetch            0      0.00%    100.00% # Number of instructions issued per FU type, per thread (Count)
system.cpu.statIssuedInstType_0::SimdUnitStrideLoad            0      0.00%    100.00% # Number of instructions issued per FU type, per thread (Count)
system.cpu.statIssuedInstType_0::SimdUnitStrideStore            0      0.00%    100.00% # Number of instructions issued per FU type, per thread (Count)
system.cpu.statIssuedInstType_0::SimdUnitStrideMaskLoad            0      0.00%    100.00% # Number of instructions issued per FU type, per thread (Count)
system.cpu.statIssuedInstType_0::SimdUnitStrideMaskStore            0      0.00%    100.00% # Number of instructions issued per FU type, per thread (Count)
system.cpu.statIssuedInstType_0::SimdStridedLoad            0      0.00%    100.00% # Number of instructions issued per FU type, per thread (Count)
system.cpu.statIssuedInstType_0::SimdStridedStore            0      0.00%    100.00% # Number of instructions issued per FU type, per thread (Count)
system.cpu.statIssuedInstType_0::SimdIndexedLoad            0      0.00%    100.00% # Number of instructions issued per FU type, per thread (Count)
system.cpu.statIssuedInstType_0::SimdIndexedStore            0      0.00%    100.00% # Number of instructions issued per FU type, per thread (Count)
system.cpu.statIssuedInstType_0::SimdWholeRegisterLoad            0      0.00%    100.00% # Number of instructions issued per FU type, per thread (Count)
system.cpu.statIssuedInstType_0::SimdWholeRegisterStore            0      0.00%    100.00% # Number of instructions issued per FU type, per thread (Count)
system.cpu.statIssuedInstType_0::SimdUnitStrideFaultOnlyFirstLoad            0      0.00%    100.00% # Number of instructions issued per FU type, per thread (Count)
system.cpu.statIssuedInstType_0::SimdUnitStrideSegmentedLoad            0      0.00%    100.00% # Number of instructions issued per FU type, per thread (Count)
system.cpu.statIssuedInstType_0::SimdUnitStrideSegmentedStore            0      0.00%    100.00% # Number of instructions issued per FU type, per thread (Count)
system.cpu.statIssuedInstType_0::SimdExt            0      0.00%    100.00% # Number of instructions issued per FU type, per thread (Count)
system.cpu.statIssuedInstType_0::SimdFloatExt            0      0.00%    100.00% # Number of instructions issued per FU type, per thread (Count)
system.cpu.statIssuedInstType_0::SimdConfig            0      0.00%    100.00% # Number of instructions issued per FU type, per thread (Count)
system.cpu.statIssuedInstType_0::total      468261270                       # Number of instructions issued per FU type, per thread (Count)
system.cpu.issueRate                         2.582872                       # Inst issue rate ((Count/Cycle))
system.cpu.fuBusy                            12551926                       # FU busy when requested (Count)
system.cpu.fuBusyRate                        0.026805                       # FU busy rate (busy events/executed inst) ((Count/Count))
system.cpu.intInstQueueReads               1069547780                       # Number of integer instruction queue reads (Count)
system.cpu.intInstQueueWrites               641092321                       # Number of integer instruction queue writes (Count)
system.cpu.intInstQueueWakeupAccesses       431097271                       # Number of integer instruction queue wakeup accesses (Count)
system.cpu.fpInstQueueReads                  61837328                       # Number of floating instruction queue reads (Count)
system.cpu.fpInstQueueWrites                 63073506                       # Number of floating instruction queue writes (Count)
system.cpu.fpInstQueueWakeupAccesses         27554280                       # Number of floating instruction queue wakeup accesses (Count)
system.cpu.vecInstQueueReads                        0                       # Number of vector instruction queue reads (Count)
system.cpu.vecInstQueueWrites                       0                       # Number of vector instruction queue writes (Count)
system.cpu.vecInstQueueWakeupAccesses               0                       # Number of vector instruction queue wakeup accesses (Count)
system.cpu.intAluAccesses                   444965458                       # Number of integer alu accesses (Count)
system.cpu.fpAluAccesses                     31260697                       # Number of floating point alu accesses (Count)
system.cpu.vecAluAccesses                           0                       # Number of vector alu accesses (Count)
system.cpu.numSquashedInsts                   5909859                       # Number of squashed instructions skipped in execute (Count)
system.cpu.numSwp                                   0                       # Number of swp insts executed (Count)
system.cpu.timesIdled                           28134                       # Number of times that the entire CPU went into an idle state and unscheduled itself (Count)
system.cpu.idleCycles                          129311                       # Total number of cycles that the CPU has spent unscheduled due to idling (Cycle)
system.cpu.MemDepUnit__0.insertedLoads       86234831                       # Number of loads inserted to the mem dependence unit. (Count)
system.cpu.MemDepUnit__0.insertedStores      40102311                       # Number of stores inserted to the mem dependence unit. (Count)
system.cpu.MemDepUnit__0.conflictingLoads     31669661                       # Number of conflicting loads. (Count)
system.cpu.MemDepUnit__0.conflictingStores     19987321                       # Number of conflicting stores. (Count)
system.cpu.MemDepUnit__1.insertedLoads              0                       # Number of loads inserted to the mem dependence unit. (Count)
system.cpu.MemDepUnit__1.insertedStores             0                       # Number of stores inserted to the mem dependence unit. (Count)
system.cpu.MemDepUnit__1.conflictingLoads            0                       # Number of conflicting loads. (Count)
system.cpu.MemDepUnit__1.conflictingStores            0                       # Number of conflicting stores. (Count)
system.cpu.MemDepUnit__2.insertedLoads              0                       # Number of loads inserted to the mem dependence unit. (Count)
system.cpu.MemDepUnit__2.insertedStores             0                       # Number of stores inserted to the mem dependence unit. (Count)
system.cpu.MemDepUnit__2.conflictingLoads            0                       # Number of conflicting loads. (Count)
system.cpu.MemDepUnit__2.conflictingStores            0                       # Number of conflicting stores. (Count)
system.cpu.MemDepUnit__3.insertedLoads              0                       # Number of loads inserted to the mem dependence unit. (Count)
system.cpu.MemDepUnit__3.insertedStores             0                       # Number of stores inserted to the mem dependence unit. (Count)
system.cpu.MemDepUnit__3.conflictingLoads            0                       # Number of conflicting loads. (Count)
system.cpu.MemDepUnit__3.conflictingStores            0                       # Number of conflicting stores. (Count)
system.cpu.branchPred.lookups_0::NoBranch         2277      0.00%      0.00% # Number of BP lookups (Count)
system.cpu.branchPred.lookups_0::Return       5903171      8.30%      8.30% # Number of BP lookups (Count)
system.cpu.branchPred.lookups_0::CallDirect      6503218      9.15%     17.45% # Number of BP lookups (Count)
system.cpu.branchPred.lookups_0::CallIndirect         1379      0.00%     17.45% # Number of BP lookups (Count)
system.cpu.branchPred.lookups_0::DirectCond     54688755     76.91%     94.36% # Number of BP lookups (Count)
system.cpu.branchPred.lookups_0::DirectUncond      3895253      5.48%     99.84% # Number of BP lookups (Count)
system.cpu.branchPred.lookups_0::IndirectCond            0      0.00%     99.84% # Number of BP lookups (Count)
system.cpu.branchPred.lookups_0::IndirectUncond       116956      0.16%    100.00% # Number of BP lookups (Count)
system.cpu.branchPred.lookups_0::total       71111009                       # Number of BP lookups (Count)
system.cpu.branchPred.squashes_0::NoBranch         1917      0.01%      0.01% # Number of branches that got squashed (completely removed) as an earlier branch was mispredicted. (Count)
system.cpu.branchPred.squashes_0::Return      1565779      4.73%      4.73% # Number of branches that got squashed (completely removed) as an earlier branch was mispredicted. (Count)
system.cpu.branchPred.squashes_0::CallDirect      2166456      6.54%     11.27% # Number of branches that got squashed (completely removed) as an earlier branch was mispredicted. (Count)
system.cpu.branchPred.squashes_0::CallIndirect          744      0.00%     11.27% # Number of branches that got squashed (completely removed) as an earlier branch was mispredicted. (Count)
system.cpu.branchPred.squashes_0::DirectCond     27590289     83.28%     94.55% # Number of branches that got squashed (completely removed) as an earlier branch was mispredicted. (Count)
system.cpu.branchPred.squashes_0::DirectUncond      1788749      5.40%     99.95% # Number of branches that got squashed (completely removed) as an earlier branch was mispredicted. (Count)
system.cpu.branchPred.squashes_0::IndirectCond            0      0.00%     99.95% # Number of branches that got squashed (completely removed) as an earlier branch was mispredicted. (Count)
system.cpu.branchPred.squashes_0::IndirectUncond        15946      0.05%    100.00% # Number of branches that got squashed (completely removed) as an earlier branch was mispredicted. (Count)
system.cpu.branchPred.squashes_0::total      33129880                       # Number of branches that got squashed (completely removed) as an earlier branch was mispredicted. (Count)
system.cpu.branchPred.corrected_0::NoBranch          536      0.03%      0.03% # Number of branches that got corrected but not yet commited. Branches get corrected by decode or after execute. Also a branch misprediction can be detected out-of-order. Therefore, a corrected branch might not end up beeing committed in case an even earlier branch was mispredicted (Count)
system.cpu.branchPred.corrected_0::Return        87666      4.61%      4.64% # Number of branches that got corrected but not yet commited. Branches get corrected by decode or after execute. Also a branch misprediction can be detected out-of-order. Therefore, a corrected branch might not end up beeing committed in case an even earlier branch was mispredicted (Count)
system.cpu.branchPred.corrected_0::CallDirect        16419      0.86%      5.50% # Number of branches that got corrected but not yet commited. Branches get corrected by decode or after execute. Also a branch misprediction can be detected out-of-order. Therefore, a corrected branch might not end up beeing committed in case an even earlier branch was mispredicted (Count)
system.cpu.branchPred.corrected_0::CallIndirect          271      0.01%      5.52% # Number of branches that got corrected but not yet commited. Branches get corrected by decode or after execute. Also a branch misprediction can be detected out-of-order. Therefore, a corrected branch might not end up beeing committed in case an even earlier branch was mispredicted (Count)
system.cpu.branchPred.corrected_0::DirectCond      1781483     93.67%     99.18% # Number of branches that got corrected but not yet commited. Branches get corrected by decode or after execute. Also a branch misprediction can be detected out-of-order. Therefore, a corrected branch might not end up beeing committed in case an even earlier branch was mispredicted (Count)
system.cpu.branchPred.corrected_0::DirectUncond        13957      0.73%     99.92% # Number of branches that got corrected but not yet commited. Branches get corrected by decode or after execute. Also a branch misprediction can be detected out-of-order. Therefore, a corrected branch might not end up beeing committed in case an even earlier branch was mispredicted (Count)
system.cpu.branchPred.corrected_0::IndirectCond            0      0.00%     99.92% # Number of branches that got corrected but not yet commited. Branches get corrected by decode or after execute. Also a branch misprediction can be detected out-of-order. Therefore, a corrected branch might not end up beeing committed in case an even earlier branch was mispredicted (Count)
system.cpu.branchPred.corrected_0::IndirectUncond         1587      0.08%    100.00% # Number of branches that got corrected but not yet commited. Branches get corrected by decode or after execute. Also a branch misprediction can be detected out-of-order. Therefore, a corrected branch might not end up beeing committed in case an even earlier branch was mispredicted (Count)
system.cpu.branchPred.corrected_0::total      1901919                       # Number of branches that got corrected but not yet commited. Branches get corrected by decode or after execute. Also a branch misprediction can be detected out-of-order. Therefore, a corrected branch might not end up beeing committed in case an even earlier branch was mispredicted (Count)
system.cpu.branchPred.earlyResteers_0::NoBranch            0                       # Number of branches that got redirected after decode. (Count)
system.cpu.branchPred.earlyResteers_0::Return            0                       # Number of branches that got redirected after decode. (Count)
system.cpu.branchPred.earlyResteers_0::CallDirect            0                       # Number of branches that got redirected after decode. (Count)
system.cpu.branchPred.earlyResteers_0::CallIndirect            0                       # Number of branches that got redirected after decode. (Count)
system.cpu.branchPred.earlyResteers_0::DirectCond            0                       # Number of branches that got redirected after decode. (Count)
system.cpu.branchPred.earlyResteers_0::DirectUncond            0                       # Number of branches that got redirected after decode. (Count)
system.cpu.branchPred.earlyResteers_0::IndirectCond            0                       # Number of branches that got redirected after decode. (Count)
system.cpu.branchPred.earlyResteers_0::IndirectUncond            0                       # Number of branches that got redirected after decode. (Count)
system.cpu.branchPred.earlyResteers_0::total            0                       # Number of branches that got redirected after decode. (Count)
system.cpu.branchPred.committed_0::NoBranch          360      0.00%      0.00% # Number of branches finally committed  (Count)
system.cpu.branchPred.committed_0::Return      4337391     11.42%     11.42% # Number of branches finally committed  (Count)
system.cpu.branchPred.committed_0::CallDirect      4336761     11.42%     22.84% # Number of branches finally committed  (Count)
system.cpu.branchPred.committed_0::CallIndirect          635      0.00%     22.84% # Number of branches finally committed  (Count)
system.cpu.branchPred.committed_0::DirectCond     27098466     71.35%     94.19% # Number of branches finally committed  (Count)
system.cpu.branchPred.committed_0::DirectUncond      2106504      5.55%     99.73% # Number of branches finally committed  (Count)
system.cpu.branchPred.committed_0::IndirectCond            0      0.00%     99.73% # Number of branches finally committed  (Count)
system.cpu.branchPred.committed_0::IndirectUncond       101010      0.27%    100.00% # Number of branches finally committed  (Count)
system.cpu.branchPred.committed_0::total     37981127                       # Number of branches finally committed  (Count)
system.cpu.branchPred.mispredicted_0::NoBranch          360      0.02%      0.02% # Number of committed branches that were mispredicted. (Count)
system.cpu.branchPred.mispredicted_0::Return        84612      4.89%      4.91% # Number of committed branches that were mispredicted. (Count)
system.cpu.branchPred.mispredicted_0::CallDirect        14251      0.82%      5.74% # Number of committed branches that were mispredicted. (Count)
system.cpu.branchPred.mispredicted_0::CallIndirect          241      0.01%      5.75% # Number of committed branches that were mispredicted. (Count)
system.cpu.branchPred.mispredicted_0::DirectCond      1621086     93.71%     99.46% # Number of committed branches that were mispredicted. (Count)
system.cpu.branchPred.mispredicted_0::DirectUncond         7883      0.46%     99.92% # Number of committed branches that were mispredicted. (Count)
system.cpu.branchPred.mispredicted_0::IndirectCond            0      0.00%     99.92% # Number of committed branches that were mispredicted. (Count)
system.cpu.branchPred.mispredicted_0::IndirectUncond         1466      0.08%    100.00% # Number of committed branches that were mispredicted. (Count)
system.cpu.branchPred.mispredicted_0::total      1729899                       # Number of committed branches that were mispredicted. (Count)
system.cpu.branchPred.targetProvider_0::NoTarget     33086099     46.53%     46.53% # The component providing the target for taken branches (Count)
system.cpu.branchPred.targetProvider_0::BTB     32016550     45.02%     91.55% # The component providing the target for taken branches (Count)
system.cpu.branchPred.targetProvider_0::RAS      5903170      8.30%     99.85% # The component providing the target for taken branches (Count)
system.cpu.branchPred.targetProvider_0::Indirect       105190      0.15%    100.00% # The component providing the target for taken branches (Count)
system.cpu.branchPred.targetProvider_0::total     71111009                       # The component providing the target for taken branches (Count)
system.cpu.branchPred.targetWrong_0::NoBranch       956011     50.89%     50.89% # Number of branches where the target was incorrect or not available at prediction time. (Count)
system.cpu.branchPred.targetWrong_0::Return       834632     44.43%     95.32% # Number of branches where the target was incorrect or not available at prediction time. (Count)
system.cpu.branchPred.targetWrong_0::CallDirect        87666      4.67%     99.99% # Number of branches where the target was incorrect or not available at prediction time. (Count)
system.cpu.branchPred.targetWrong_0::CallIndirect          174      0.01%    100.00% # Number of branches where the target was incorrect or not available at prediction time. (Count)
system.cpu.branchPred.targetWrong_0::DirectCond            0      0.00%    100.00% # Number of branches where the target was incorrect or not available at prediction time. (Count)
system.cpu.branchPred.targetWrong_0::DirectUncond            0      0.00%    100.00% # Number of branches where the target was incorrect or not available at prediction time. (Count)
system.cpu.branchPred.targetWrong_0::IndirectCond            0      0.00%    100.00% # Number of branches where the target was incorrect or not available at prediction time. (Count)
system.cpu.branchPred.targetWrong_0::IndirectUncond            0      0.00%    100.00% # Number of branches where the target was incorrect or not available at prediction time. (Count)
system.cpu.branchPred.targetWrong_0::total      1878483                       # Number of branches where the target was incorrect or not available at prediction time. (Count)
system.cpu.branchPred.condPredicted          54691032                       # Number of conditional branches predicted (Count)
system.cpu.branchPred.condPredictedTaken     21699982                       # Number of conditional branches predicted as taken (Count)
system.cpu.branchPred.condIncorrect           1901919                       # Number of conditional branches incorrect (Count)
system.cpu.branchPred.predTakenBTBMiss          30386                       # Number of branches predicted taken but missed in BTB (Count)
system.cpu.branchPred.NotTakenMispredicted      1049818                       # Number branches predicted 'not taken' but turned out to be taken (Count)
system.cpu.branchPred.TakenMispredicted        852101                       # Number branches predicted taken but are actually not taken (Count)
system.cpu.branchPred.BTBLookups             71111009                       # Number of BTB lookups (Count)
system.cpu.branchPred.BTBUpdates               959758                       # Number of BTB updates (Count)
system.cpu.branchPred.BTBHits                54437828                       # Number of BTB hits (Count)
system.cpu.branchPred.BTBHitRatio            0.765533                       # BTB Hit Ratio (Ratio)
system.cpu.branchPred.BTBMispredicted           31760                       # Number BTB mispredictions. No target found or target wrong (Count)
system.cpu.branchPred.indirectLookups          118335                       # Number of indirect predictor lookups. (Count)
system.cpu.branchPred.indirectHits             105190                       # Number of indirect target hits. (Count)
system.cpu.branchPred.indirectMisses            13145                       # Number of indirect misses. (Count)
system.cpu.branchPred.indirectMispredicted            0                       # Number of mispredicted indirect branches. (Count)
system.cpu.branchPred.btb.lookups::NoBranch         2277      0.00%      0.00% # Number of BTB lookups (Count)
system.cpu.branchPred.btb.lookups::Return      5903171      8.30%      8.30% # Number of BTB lookups (Count)
system.cpu.branchPred.btb.lookups::CallDirect      6503218      9.15%     17.45% # Number of BTB lookups (Count)
system.cpu.branchPred.btb.lookups::CallIndirect         1379      0.00%     17.45% # Number of BTB lookups (Count)
system.cpu.branchPred.btb.lookups::DirectCond     54688755     76.91%     94.36% # Number of BTB lookups (Count)
system.cpu.branchPred.btb.lookups::DirectUncond      3895253      5.48%     99.84% # Number of BTB lookups (Count)
system.cpu.branchPred.btb.lookups::IndirectCond            0      0.00%     99.84% # Number of BTB lookups (Count)
system.cpu.branchPred.btb.lookups::IndirectUncond       116956      0.16%    100.00% # Number of BTB lookups (Count)
system.cpu.branchPred.btb.lookups::total     71111009                       # Number of BTB lookups (Count)
system.cpu.branchPred.btb.misses::NoBranch          362      0.00%      0.00% # Number of BTB misses (Count)
system.cpu.branchPred.btb.misses::Return      5757660     34.53%     34.53% # Number of BTB misses (Count)
system.cpu.branchPred.btb.misses::CallDirect        31501      0.19%     34.72% # Number of BTB misses (Count)
system.cpu.branchPred.btb.misses::CallIndirect         1379      0.01%     34.73% # Number of BTB misses (Count)
system.cpu.branchPred.btb.misses::DirectCond     10748421     64.47%     99.20% # Number of BTB misses (Count)
system.cpu.branchPred.btb.misses::DirectUncond        16902      0.10%     99.30% # Number of BTB misses (Count)
system.cpu.branchPred.btb.misses::IndirectCond            0      0.00%     99.30% # Number of BTB misses (Count)
system.cpu.branchPred.btb.misses::IndirectUncond       116956      0.70%    100.00% # Number of BTB misses (Count)
system.cpu.branchPred.btb.misses::total      16673181                       # Number of BTB misses (Count)
system.cpu.branchPred.btb.updates::NoBranch            0      0.00%      0.00% # Number of BTB updates (Count)
system.cpu.branchPred.btb.updates::Return            0      0.00%      0.00% # Number of BTB updates (Count)
system.cpu.branchPred.btb.updates::CallDirect        16419      1.71%      1.71% # Number of BTB updates (Count)
system.cpu.branchPred.btb.updates::CallIndirect            0      0.00%      1.71% # Number of BTB updates (Count)
system.cpu.branchPred.btb.updates::DirectCond       929382     96.84%     98.55% # Number of BTB updates (Count)
system.cpu.branchPred.btb.updates::DirectUncond        13957      1.45%    100.00% # Number of BTB updates (Count)
system.cpu.branchPred.btb.updates::IndirectCond            0      0.00%    100.00% # Number of BTB updates (Count)
system.cpu.branchPred.btb.updates::IndirectUncond            0      0.00%    100.00% # Number of BTB updates (Count)
system.cpu.branchPred.btb.updates::total       959758                       # Number of BTB updates (Count)
system.cpu.branchPred.btb.mispredict::NoBranch            0      0.00%      0.00% # Number of BTB mispredictions. No target found or target wrong. (Count)
system.cpu.branchPred.btb.mispredict::Return            0      0.00%      0.00% # Number of BTB mispredictions. No target found or target wrong. (Count)
system.cpu.branchPred.btb.mispredict::CallDirect        16419      1.71%      1.71% # Number of BTB mispredictions. No target found or target wrong. (Count)
system.cpu.branchPred.btb.mispredict::CallIndirect            0      0.00%      1.71% # Number of BTB mispredictions. No target found or target wrong. (Count)
system.cpu.branchPred.btb.mispredict::DirectCond       929382     96.84%     98.55% # Number of BTB mispredictions. No target found or target wrong. (Count)
system.cpu.branchPred.btb.mispredict::DirectUncond        13957      1.45%    100.00% # Number of BTB mispredictions. No target found or target wrong. (Count)
system.cpu.branchPred.btb.mispredict::IndirectCond            0      0.00%    100.00% # Number of BTB mispredictions. No target found or target wrong. (Count)
system.cpu.branchPred.btb.mispredict::IndirectUncond            0      0.00%    100.00% # Number of BTB mispredictions. No target found or target wrong. (Count)
system.cpu.branchPred.btb.mispredict::total       959758                       # Number of BTB mispredictions. No target found or target wrong. (Count)
system.cpu.branchPred.btb.power_state.pwrStateResidencyTicks::UNDEFINED 2417203821727                       # Cumulative time (in ticks) in various power states (Tick)
system.cpu.branchPred.indirectBranchPred.lookups       118335                       # Number of lookups (Count)
system.cpu.branchPred.indirectBranchPred.hits       105190                       # Number of hits of a tag (Count)
system.cpu.branchPred.indirectBranchPred.misses        13145                       # Number of misses (Count)
system.cpu.branchPred.indirectBranchPred.targetRecords         1858                       # Number of targets that where recorded/installed in the cache (Count)
system.cpu.branchPred.indirectBranchPred.indirectRecords       120193                       # Number of indirect branches/calls recorded in the indirect hist (Count)
system.cpu.branchPred.indirectBranchPred.speculativeOverflows            1                       # Number of times more than the allowed capacity for speculative branches/calls where in flight and destroy the path history (Count)
system.cpu.branchPred.ras.pushes              8070376                       # Number of times a PC was pushed onto the RAS (Count)
system.cpu.branchPred.ras.pops                8070371                       # Number of times a PC was poped from the RAS (Count)
system.cpu.branchPred.ras.squashes            3732979                       # Number of times the stack operation was squashed due to wrong speculation. (Count)
system.cpu.branchPred.ras.used                4337391                       # Number of times the RAS is the provider (Count)
system.cpu.branchPred.ras.correct             4252779                       # Number of times the RAS is the provider and the prediction is correct (Count)
system.cpu.branchPred.ras.incorrect             84612                       # Number of times the RAS is the provider and the prediction is wrong (Count)
system.cpu.commit.commitSquashedInsts       170488658                       # The number of squashed insts skipped by commit (Count)
system.cpu.commit.commitNonSpecStalls         3328620                       # The number of times commit has been forced to stall to communicate backwards (Count)
system.cpu.commit.branchMispredicts           1872981                       # The number of times a branch was mispredicted (Count)
system.cpu.commit.numCommittedDist::samples    157372661                       # Number of insts commited each cycle (Count)
system.cpu.commit.numCommittedDist::mean     2.302369                       # Number of insts commited each cycle (Count)
system.cpu.commit.numCommittedDist::stdev     3.081651                       # Number of insts commited each cycle (Count)
system.cpu.commit.numCommittedDist::underflows            0      0.00%      0.00% # Number of insts commited each cycle (Count)
system.cpu.commit.numCommittedDist::0        78379081     49.80%     49.80% # Number of insts commited each cycle (Count)
system.cpu.commit.numCommittedDist::1        17958466     11.41%     61.22% # Number of insts commited each cycle (Count)
system.cpu.commit.numCommittedDist::2         8032634      5.10%     66.32% # Number of insts commited each cycle (Count)
system.cpu.commit.numCommittedDist::3        12580343      7.99%     74.31% # Number of insts commited each cycle (Count)
system.cpu.commit.numCommittedDist::4         3875842      2.46%     76.78% # Number of insts commited each cycle (Count)
system.cpu.commit.numCommittedDist::5         3129978      1.99%     78.77% # Number of insts commited each cycle (Count)
system.cpu.commit.numCommittedDist::6         2639288      1.68%     80.44% # Number of insts commited each cycle (Count)
system.cpu.commit.numCommittedDist::7         2640117      1.68%     82.12% # Number of insts commited each cycle (Count)
system.cpu.commit.numCommittedDist::8        28136912     17.88%    100.00% # Number of insts commited each cycle (Count)
system.cpu.commit.numCommittedDist::overflows            0      0.00%    100.00% # Number of insts commited each cycle (Count)
system.cpu.commit.numCommittedDist::min_value            0                       # Number of insts commited each cycle (Count)
system.cpu.commit.numCommittedDist::max_value            8                       # Number of insts commited each cycle (Count)
system.cpu.commit.numCommittedDist::total    157372661                       # Number of insts commited each cycle (Count)
system.cpu.commit.amos                              0                       # Number of atomic instructions committed (Count)
system.cpu.commit.membars                     2218278                       # Number of memory barriers committed (Count)
system.cpu.commit.functionCalls               4337396                       # Number of function calls committed. (Count)
system.cpu.commit.committedInstType_0::No_OpClass      3692950      1.02%      1.02% # Class of committed instruction (Count)
system.cpu.commit.committedInstType_0::IntAlu    257082426     70.95%     71.97% # Class of committed instruction (Count)
system.cpu.commit.committedInstType_0::IntMult       222759      0.06%     72.03% # Class of committed instruction (Count)
system.cpu.commit.committedInstType_0::IntDiv       797566      0.22%     72.25% # Class of committed instruction (Count)
system.cpu.commit.committedInstType_0::FloatAdd      4109198      1.13%     73.39% # Class of committed instruction (Count)
system.cpu.commit.committedInstType_0::FloatCmp            0      0.00%     73.39% # Class of committed instruction (Count)
system.cpu.commit.committedInstType_0::FloatCvt         1712      0.00%     73.39% # Class of committed instruction (Count)
system.cpu.commit.committedInstType_0::FloatMult            0      0.00%     73.39% # Class of committed instruction (Count)
system.cpu.commit.committedInstType_0::FloatMultAcc            0      0.00%     73.39% # Class of committed instruction (Count)
system.cpu.commit.committedInstType_0::FloatDiv            0      0.00%     73.39% # Class of committed instruction (Count)
system.cpu.commit.committedInstType_0::FloatMisc            0      0.00%     73.39% # Class of committed instruction (Count)
system.cpu.commit.committedInstType_0::FloatSqrt            0      0.00%     73.39% # Class of committed instruction (Count)
system.cpu.commit.committedInstType_0::SimdAdd         7088      0.00%     73.39% # Class of committed instruction (Count)
system.cpu.commit.committedInstType_0::SimdAddAcc            0      0.00%     73.39% # Class of committed instruction (Count)
system.cpu.commit.committedInstType_0::SimdAlu      1187006      0.33%     73.72% # Class of committed instruction (Count)
system.cpu.commit.committedInstType_0::SimdCmp            6      0.00%     73.72% # Class of committed instruction (Count)
system.cpu.commit.committedInstType_0::SimdCvt        47036      0.01%     73.73% # Class of committed instruction (Count)
system.cpu.commit.committedInstType_0::SimdMisc       597554      0.16%     73.90% # Class of committed instruction (Count)
system.cpu.commit.committedInstType_0::SimdMult            0      0.00%     73.90% # Class of committed instruction (Count)
system.cpu.commit.committedInstType_0::SimdMultAcc            0      0.00%     73.90% # Class of committed instruction (Count)
system.cpu.commit.committedInstType_0::SimdMatMultAcc            0      0.00%     73.90% # Class of committed instruction (Count)
system.cpu.commit.committedInstType_0::SimdShift         2286      0.00%     73.90% # Class of committed instruction (Count)
system.cpu.commit.committedInstType_0::SimdShiftAcc            0      0.00%     73.90% # Class of committed instruction (Count)
system.cpu.commit.committedInstType_0::SimdDiv            0      0.00%     73.90% # Class of committed instruction (Count)
system.cpu.commit.committedInstType_0::SimdSqrt            0      0.00%     73.90% # Class of committed instruction (Count)
system.cpu.commit.committedInstType_0::SimdFloatAdd        16416      0.00%     73.90% # Class of committed instruction (Count)
system.cpu.commit.committedInstType_0::SimdFloatAlu            0      0.00%     73.90% # Class of committed instruction (Count)
system.cpu.commit.committedInstType_0::SimdFloatCmp        10920      0.00%     73.90% # Class of committed instruction (Count)
system.cpu.commit.committedInstType_0::SimdFloatCvt      3934308      1.09%     74.99% # Class of committed instruction (Count)
system.cpu.commit.committedInstType_0::SimdFloatDiv           12      0.00%     74.99% # Class of committed instruction (Count)
system.cpu.commit.committedInstType_0::SimdFloatMisc            0      0.00%     74.99% # Class of committed instruction (Count)
system.cpu.commit.committedInstType_0::SimdFloatMult       505153      0.14%     75.13% # Class of committed instruction (Count)
system.cpu.commit.committedInstType_0::SimdFloatMultAcc            0      0.00%     75.13% # Class of committed instruction (Count)
system.cpu.commit.committedInstType_0::SimdFloatMatMultAcc            0      0.00%     75.13% # Class of committed instruction (Count)
system.cpu.commit.committedInstType_0::SimdFloatSqrt           18      0.00%     75.13% # Class of committed instruction (Count)
system.cpu.commit.committedInstType_0::SimdReduceAdd            0      0.00%     75.13% # Class of committed instruction (Count)
system.cpu.commit.committedInstType_0::SimdReduceAlu            0      0.00%     75.13% # Class of committed instruction (Count)
system.cpu.commit.committedInstType_0::SimdReduceCmp            0      0.00%     75.13% # Class of committed instruction (Count)
system.cpu.commit.committedInstType_0::SimdFloatReduceAdd            0      0.00%     75.13% # Class of committed instruction (Count)
system.cpu.commit.committedInstType_0::SimdFloatReduceCmp            0      0.00%     75.13% # Class of committed instruction (Count)
system.cpu.commit.committedInstType_0::SimdAes            0      0.00%     75.13% # Class of committed instruction (Count)
system.cpu.commit.committedInstType_0::SimdAesMix            0      0.00%     75.13% # Class of committed instruction (Count)
system.cpu.commit.committedInstType_0::SimdSha1Hash            0      0.00%     75.13% # Class of committed instruction (Count)
system.cpu.commit.committedInstType_0::SimdSha1Hash2            0      0.00%     75.13% # Class of committed instruction (Count)
system.cpu.commit.committedInstType_0::SimdSha256Hash            0      0.00%     75.13% # Class of committed instruction (Count)
system.cpu.commit.committedInstType_0::SimdSha256Hash2            0      0.00%     75.13% # Class of committed instruction (Count)
system.cpu.commit.committedInstType_0::SimdShaSigma2            0      0.00%     75.13% # Class of committed instruction (Count)
system.cpu.commit.committedInstType_0::SimdShaSigma3            0      0.00%     75.13% # Class of committed instruction (Count)
system.cpu.commit.committedInstType_0::SimdPredAlu            0      0.00%     75.13% # Class of committed instruction (Count)
system.cpu.commit.committedInstType_0::Matrix            0      0.00%     75.13% # Class of committed instruction (Count)
system.cpu.commit.committedInstType_0::MatrixMov            0      0.00%     75.13% # Class of committed instruction (Count)
system.cpu.commit.committedInstType_0::MatrixOP            0      0.00%     75.13% # Class of committed instruction (Count)
system.cpu.commit.committedInstType_0::MemRead     54751588     15.11%     90.24% # Class of committed instruction (Count)
system.cpu.commit.committedInstType_0::MemWrite     28367631      7.83%     98.07% # Class of committed instruction (Count)
system.cpu.commit.committedInstType_0::FloatMemRead      5429585      1.50%     99.57% # Class of committed instruction (Count)
system.cpu.commit.committedInstType_0::FloatMemWrite      1566646      0.43%    100.00% # Class of committed instruction (Count)
system.cpu.commit.committedInstType_0::IprAccess            0      0.00%    100.00% # Class of committed instruction (Count)
system.cpu.commit.committedInstType_0::InstPrefetch            0      0.00%    100.00% # Class of committed instruction (Count)
system.cpu.commit.committedInstType_0::SimdUnitStrideLoad            0      0.00%    100.00% # Class of committed instruction (Count)
system.cpu.commit.committedInstType_0::SimdUnitStrideStore            0      0.00%    100.00% # Class of committed instruction (Count)
system.cpu.commit.committedInstType_0::SimdUnitStrideMaskLoad            0      0.00%    100.00% # Class of committed instruction (Count)
system.cpu.commit.committedInstType_0::SimdUnitStrideMaskStore            0      0.00%    100.00% # Class of committed instruction (Count)
system.cpu.commit.committedInstType_0::SimdStridedLoad            0      0.00%    100.00% # Class of committed instruction (Count)
system.cpu.commit.committedInstType_0::SimdStridedStore            0      0.00%    100.00% # Class of committed instruction (Count)
system.cpu.commit.committedInstType_0::SimdIndexedLoad            0      0.00%    100.00% # Class of committed instruction (Count)
system.cpu.commit.committedInstType_0::SimdIndexedStore            0      0.00%    100.00% # Class of committed instruction (Count)
system.cpu.commit.committedInstType_0::SimdWholeRegisterLoad            0      0.00%    100.00% # Class of committed instruction (Count)
system.cpu.commit.committedInstType_0::SimdWholeRegisterStore            0      0.00%    100.00% # Class of committed instruction (Count)
system.cpu.commit.committedInstType_0::SimdUnitStrideFaultOnlyFirstLoad            0      0.00%    100.00% # Class of committed instruction (Count)
system.cpu.commit.committedInstType_0::SimdUnitStrideSegmentedLoad            0      0.00%    100.00% # Class of committed instruction (Count)
system.cpu.commit.committedInstType_0::SimdUnitStrideSegmentedStore            0      0.00%    100.00% # Class of committed instruction (Count)
system.cpu.commit.committedInstType_0::SimdExt            0      0.00%    100.00% # Class of committed instruction (Count)
system.cpu.commit.committedInstType_0::SimdFloatExt            0      0.00%    100.00% # Class of committed instruction (Count)
system.cpu.commit.committedInstType_0::SimdConfig            0      0.00%    100.00% # Class of committed instruction (Count)
system.cpu.commit.committedInstType_0::total    362329864                       # Class of committed instruction (Count)
system.cpu.commit.commitEligibleSamples      28136912                       # number cycles where commit BW limit reached (Cycle)
system.cpu.commitStats0.numInsts            188278565                       # Number of instructions committed (thread level) (Count)
system.cpu.commitStats0.numOps              362329864                       # Number of ops (including micro ops) committed (thread level) (Count)
system.cpu.commitStats0.numInstsNotNOP      188278565                       # Number of instructions committed excluding NOPs or prefetches (Count)
system.cpu.commitStats0.numOpsNotNOP        362329864                       # Number of Ops (including micro ops) Simulated (Count)
system.cpu.commitStats0.cpi                  0.962907                       # CPI: cycles per instruction (thread level) ((Cycle/Count))
system.cpu.commitStats0.ipc                  1.038521                       # IPC: instructions per cycle (thread level) ((Count/Cycle))
system.cpu.commitStats0.numMemRefs           90115450                       # Number of memory references committed (Count)
system.cpu.commitStats0.numFpInsts           17905908                       # Number of float instructions (Count)
system.cpu.commitStats0.numIntInsts         345860156                       # Number of integer instructions (Count)
system.cpu.commitStats0.numLoadInsts         60181173                       # Number of load instructions (Count)
system.cpu.commitStats0.numStoreInsts        29934277                       # Number of store instructions (Count)
system.cpu.commitStats0.numVecInsts                 0                       # Number of vector instructions (Count)
system.cpu.commitStats0.committedInstType::No_OpClass      3692950      1.02%      1.02% # Class of committed instruction. (Count)
system.cpu.commitStats0.committedInstType::IntAlu    257082426     70.95%     71.97% # Class of committed instruction. (Count)
system.cpu.commitStats0.committedInstType::IntMult       222759      0.06%     72.03% # Class of committed instruction. (Count)
system.cpu.commitStats0.committedInstType::IntDiv       797566      0.22%     72.25% # Class of committed instruction. (Count)
system.cpu.commitStats0.committedInstType::FloatAdd      4109198      1.13%     73.39% # Class of committed instruction. (Count)
system.cpu.commitStats0.committedInstType::FloatCmp            0      0.00%     73.39% # Class of committed instruction. (Count)
system.cpu.commitStats0.committedInstType::FloatCvt         1712      0.00%     73.39% # Class of committed instruction. (Count)
system.cpu.commitStats0.committedInstType::FloatMult            0      0.00%     73.39% # Class of committed instruction. (Count)
system.cpu.commitStats0.committedInstType::FloatMultAcc            0      0.00%     73.39% # Class of committed instruction. (Count)
system.cpu.commitStats0.committedInstType::FloatDiv            0      0.00%     73.39% # Class of committed instruction. (Count)
system.cpu.commitStats0.committedInstType::FloatMisc            0      0.00%     73.39% # Class of committed instruction. (Count)
system.cpu.commitStats0.committedInstType::FloatSqrt            0      0.00%     73.39% # Class of committed instruction. (Count)
system.cpu.commitStats0.committedInstType::SimdAdd         7088      0.00%     73.39% # Class of committed instruction. (Count)
system.cpu.commitStats0.committedInstType::SimdAddAcc            0      0.00%     73.39% # Class of committed instruction. (Count)
system.cpu.commitStats0.committedInstType::SimdAlu      1187006      0.33%     73.72% # Class of committed instruction. (Count)
system.cpu.commitStats0.committedInstType::SimdCmp            6      0.00%     73.72% # Class of committed instruction. (Count)
system.cpu.commitStats0.committedInstType::SimdCvt        47036      0.01%     73.73% # Class of committed instruction. (Count)
system.cpu.commitStats0.committedInstType::SimdMisc       597554      0.16%     73.90% # Class of committed instruction. (Count)
system.cpu.commitStats0.committedInstType::SimdMult            0      0.00%     73.90% # Class of committed instruction. (Count)
system.cpu.commitStats0.committedInstType::SimdMultAcc            0      0.00%     73.90% # Class of committed instruction. (Count)
system.cpu.commitStats0.committedInstType::SimdMatMultAcc            0      0.00%     73.90% # Class of committed instruction. (Count)
system.cpu.commitStats0.committedInstType::SimdShift         2286      0.00%     73.90% # Class of committed instruction. (Count)
system.cpu.commitStats0.committedInstType::SimdShiftAcc            0      0.00%     73.90% # Class of committed instruction. (Count)
system.cpu.commitStats0.committedInstType::SimdDiv            0      0.00%     73.90% # Class of committed instruction. (Count)
system.cpu.commitStats0.committedInstType::SimdSqrt            0      0.00%     73.90% # Class of committed instruction. (Count)
system.cpu.commitStats0.committedInstType::SimdFloatAdd        16416      0.00%     73.90% # Class of committed instruction. (Count)
system.cpu.commitStats0.committedInstType::SimdFloatAlu            0      0.00%     73.90% # Class of committed instruction. (Count)
system.cpu.commitStats0.committedInstType::SimdFloatCmp        10920      0.00%     73.90% # Class of committed instruction. (Count)
system.cpu.commitStats0.committedInstType::SimdFloatCvt      3934308      1.09%     74.99% # Class of committed instruction. (Count)
system.cpu.commitStats0.committedInstType::SimdFloatDiv           12      0.00%     74.99% # Class of committed instruction. (Count)
system.cpu.commitStats0.committedInstType::SimdFloatMisc            0      0.00%     74.99% # Class of committed instruction. (Count)
system.cpu.commitStats0.committedInstType::SimdFloatMult       505153      0.14%     75.13% # Class of committed instruction. (Count)
system.cpu.commitStats0.committedInstType::SimdFloatMultAcc            0      0.00%     75.13% # Class of committed instruction. (Count)
system.cpu.commitStats0.committedInstType::SimdFloatMatMultAcc            0      0.00%     75.13% # Class of committed instruction. (Count)
system.cpu.commitStats0.committedInstType::SimdFloatSqrt           18      0.00%     75.13% # Class of committed instruction. (Count)
system.cpu.commitStats0.committedInstType::SimdReduceAdd            0      0.00%     75.13% # Class of committed instruction. (Count)
system.cpu.commitStats0.committedInstType::SimdReduceAlu            0      0.00%     75.13% # Class of committed instruction. (Count)
system.cpu.commitStats0.committedInstType::SimdReduceCmp            0      0.00%     75.13% # Class of committed instruction. (Count)
system.cpu.commitStats0.committedInstType::SimdFloatReduceAdd            0      0.00%     75.13% # Class of committed instruction. (Count)
system.cpu.commitStats0.committedInstType::SimdFloatReduceCmp            0      0.00%     75.13% # Class of committed instruction. (Count)
system.cpu.commitStats0.committedInstType::SimdAes            0      0.00%     75.13% # Class of committed instruction. (Count)
system.cpu.commitStats0.committedInstType::SimdAesMix            0      0.00%     75.13% # Class of committed instruction. (Count)
system.cpu.commitStats0.committedInstType::SimdSha1Hash            0      0.00%     75.13% # Class of committed instruction. (Count)
system.cpu.commitStats0.committedInstType::SimdSha1Hash2            0      0.00%     75.13% # Class of committed instruction. (Count)
system.cpu.commitStats0.committedInstType::SimdSha256Hash            0      0.00%     75.13% # Class of committed instruction. (Count)
system.cpu.commitStats0.committedInstType::SimdSha256Hash2            0      0.00%     75.13% # Class of committed instruction. (Count)
system.cpu.commitStats0.committedInstType::SimdShaSigma2            0      0.00%     75.13% # Class of committed instruction. (Count)
system.cpu.commitStats0.committedInstType::SimdShaSigma3            0      0.00%     75.13% # Class of committed instruction. (Count)
system.cpu.commitStats0.committedInstType::SimdPredAlu            0      0.00%     75.13% # Class of committed instruction. (Count)
system.cpu.commitStats0.committedInstType::Matrix            0      0.00%     75.13% # Class of committed instruction. (Count)
system.cpu.commitStats0.committedInstType::MatrixMov            0      0.00%     75.13% # Class of committed instruction. (Count)
system.cpu.commitStats0.committedInstType::MatrixOP            0      0.00%     75.13% # Class of committed instruction. (Count)
system.cpu.commitStats0.committedInstType::MemRead     54751588     15.11%     90.24% # Class of committed instruction. (Count)
system.cpu.commitStats0.committedInstType::MemWrite     28367631      7.83%     98.07% # Class of committed instruction. (Count)
system.cpu.commitStats0.committedInstType::FloatMemRead      5429585      1.50%     99.57% # Class of committed instruction. (Count)
system.cpu.commitStats0.committedInstType::FloatMemWrite      1566646      0.43%    100.00% # Class of committed instruction. (Count)
system.cpu.commitStats0.committedInstType::IprAccess            0      0.00%    100.00% # Class of committed instruction. (Count)
system.cpu.commitStats0.committedInstType::InstPrefetch            0      0.00%    100.00% # Class of committed instruction. (Count)
system.cpu.commitStats0.committedInstType::SimdUnitStrideLoad            0      0.00%    100.00% # Class of committed instruction. (Count)
system.cpu.commitStats0.committedInstType::SimdUnitStrideStore            0      0.00%    100.00% # Class of committed instruction. (Count)
system.cpu.commitStats0.committedInstType::SimdUnitStrideMaskLoad            0      0.00%    100.00% # Class of committed instruction. (Count)
system.cpu.commitStats0.committedInstType::SimdUnitStrideMaskStore            0      0.00%    100.00% # Class of committed instruction. (Count)
system.cpu.commitStats0.committedInstType::SimdStridedLoad            0      0.00%    100.00% # Class of committed instruction. (Count)
system.cpu.commitStats0.committedInstType::SimdStridedStore            0      0.00%    100.00% # Class of committed instruction. (Count)
system.cpu.commitStats0.committedInstType::SimdIndexedLoad            0      0.00%    100.00% # Class of committed instruction. (Count)
system.cpu.commitStats0.committedInstType::SimdIndexedStore            0      0.00%    100.00% # Class of committed instruction. (Count)
system.cpu.commitStats0.committedInstType::SimdWholeRegisterLoad            0      0.00%    100.00% # Class of committed instruction. (Count)
system.cpu.commitStats0.committedInstType::SimdWholeRegisterStore            0      0.00%    100.00% # Class of committed instruction. (Count)
system.cpu.commitStats0.committedInstType::SimdUnitStrideFaultOnlyFirstLoad            0      0.00%    100.00% # Class of committed instruction. (Count)
system.cpu.commitStats0.committedInstType::SimdUnitStrideSegmentedLoad            0      0.00%    100.00% # Class of committed instruction. (Count)
system.cpu.commitStats0.committedInstType::SimdUnitStrideSegmentedStore            0      0.00%    100.00% # Class of committed instruction. (Count)
system.cpu.commitStats0.committedInstType::SimdExt            0      0.00%    100.00% # Class of committed instruction. (Count)
system.cpu.commitStats0.committedInstType::SimdFloatExt            0      0.00%    100.00% # Class of committed instruction. (Count)
system.cpu.commitStats0.committedInstType::SimdConfig            0      0.00%    100.00% # Class of committed instruction. (Count)
system.cpu.commitStats0.committedInstType::total    362329864                       # Class of committed instruction. (Count)
system.cpu.commitStats0.committedControl::IsControl     37981127                       # Class of control type instructions committed (Count)
system.cpu.commitStats0.committedControl::IsDirectControl     33541731                       # Class of control type instructions committed (Count)
system.cpu.commitStats0.committedControl::IsIndirectControl      4439036                       # Class of control type instructions committed (Count)
system.cpu.commitStats0.committedControl::IsCondControl     27098466                       # Class of control type instructions committed (Count)
system.cpu.commitStats0.committedControl::IsUncondControl     10882301                       # Class of control type instructions committed (Count)
system.cpu.commitStats0.committedControl::IsCall      4337396                       # Class of control type instructions committed (Count)
system.cpu.commitStats0.committedControl::IsReturn      4337391                       # Class of control type instructions committed (Count)
system.cpu.decode.idleCycles                 26335917                       # Number of cycles decode is idle (Cycle)
system.cpu.decode.blockedCycles              72820688                       # Number of cycles decode is blocked (Cycle)
system.cpu.decode.runCycles                  63575399                       # Number of cycles decode is running (Cycle)
system.cpu.decode.unblockCycles              15871689                       # Number of cycles decode is unblocking (Cycle)
system.cpu.decode.squashCycles                2561816                       # Number of cycles decode is squashing (Cycle)
system.cpu.decode.branchResolved             29204779                       # Number of times decode resolved a branch (Count)
system.cpu.decode.branchMispred                 31999                       # Number of times decode detected a branch misprediction (Count)
system.cpu.decode.decodedInsts              570908928                       # Number of instructions handled by decode (Count)
system.cpu.decode.squashedInsts                178193                       # Number of squashed instructions handled by decode (Count)
system.cpu.executeStats0.numInsts           462351411                       # Number of executed instructions (Count)
system.cpu.executeStats0.numNop                     0                       # Number of nop insts executed (Count)
system.cpu.executeStats0.numBranches         44687530                       # Number of branches executed (Count)
system.cpu.executeStats0.numLoadInsts        70804683                       # Number of load instructions executed (Count)
system.cpu.executeStats0.numStoreInsts       33262499                       # Number of stores executed (Count)
system.cpu.executeStats0.instRate            2.550274                       # Inst execution rate ((Count/Cycle))
system.cpu.executeStats0.numCCRegReads      190616196                       # Number of times the CC registers were read (Count)
system.cpu.executeStats0.numCCRegWrites     117859597                       # Number of times the CC registers were written (Count)
system.cpu.executeStats0.numFpRegReads       17621123                       # Number of times the floating registers were read (Count)
system.cpu.executeStats0.numFpRegWrites      21737080                       # Number of times the floating registers were written (Count)
system.cpu.executeStats0.numIntRegReads     469888899                       # Number of times the integer registers were read (Count)
system.cpu.executeStats0.numIntRegWrites    325524780                       # Number of times the integer registers were written (Count)
system.cpu.executeStats0.numMemRefs         104067182                       # Number of memory refs (Count)
system.cpu.executeStats0.numMiscRegReads    203996407                       # Number of times the Misc registers were read (Count)
system.cpu.executeStats0.numMiscRegWrites          963                       # Number of times the Misc registers were written (Count)
system.cpu.executeStats0.numVecAluAccesses            0                       # Number of vector alu accesses (Count)
system.cpu.executeStats0.numDiscardedOps            0                       # Number of ops (including micro ops) which were discarded before commit (Count)
system.cpu.fetch.predictedBranches           38024910                       # Number of branches that fetch has predicted taken (Count)
system.cpu.fetch.cycles                     160016525                       # Number of cycles fetch has run and was not squashing or blocked (Cycle)
system.cpu.fetch.squashCycles                 5186344                       # Number of cycles fetch has spent squashing (Cycle)
system.cpu.fetch.miscStallCycles                 2328                       # Number of cycles fetch has spent waiting on interrupts, or bad addresses, or out of MSHRs (Cycle)
system.cpu.fetch.pendingTrapStallCycles         19100                       # Number of stall cycles due to pending traps (Cycle)
system.cpu.fetch.cacheLines                  46109160                       # Number of cache lines fetched (Count)
[...]
system.mem_ctrl.dram.bwRead::total          346284546                       # Total read bandwidth from this memory ((Byte/Second))
system.mem_ctrl.dram.bwInstRead::cpu.inst    185918960                       # Instruction read bandwidth from this memory ((Byte/Second))
system.mem_ctrl.dram.bwInstRead::total      185918960                       # Instruction read bandwidth from this memory ((Byte/Second))
system.mem_ctrl.dram.bwWrite::writebacks     47248578                       # Write bandwidth from this memory ((Byte/Second))
system.mem_ctrl.dram.bwWrite::total          47248578                       # Write bandwidth from this memory ((Byte/Second))
system.mem_ctrl.dram.bwTotal::writebacks     47248578                       # Total bandwidth to/from this memory ((Byte/Second))
system.mem_ctrl.dram.bwTotal::cpu.inst      185918960                       # Total bandwidth to/from this memory ((Byte/Second))
system.mem_ctrl.dram.bwTotal::cpu.data      160365587                       # Total bandwidth to/from this memory ((Byte/Second))
system.mem_ctrl.dram.bwTotal::total         393533124                       # Total bandwidth to/from this memory ((Byte/Second))
system.mem_ctrl.dram.readBursts                  5812                       # Number of DRAM read bursts (Count)
system.mem_ctrl.dram.writeBursts                  656                       # Number of DRAM write bursts (Count)
system.mem_ctrl.dram.perBankRdBursts::0           229                       # Per bank write bursts (Count)
system.mem_ctrl.dram.perBankRdBursts::1           268                       # Per bank write bursts (Count)
system.mem_ctrl.dram.perBankRdBursts::2           161                       # Per bank write bursts (Count)
system.mem_ctrl.dram.perBankRdBursts::3           339                       # Per bank write bursts (Count)
system.mem_ctrl.dram.perBankRdBursts::4           630                       # Per bank write bursts (Count)
system.mem_ctrl.dram.perBankRdBursts::5           270                       # Per bank write bursts (Count)
system.mem_ctrl.dram.perBankRdBursts::6           707                       # Per bank write bursts (Count)
system.mem_ctrl.dram.perBankRdBursts::7           547                       # Per bank write bursts (Count)
system.mem_ctrl.dram.perBankRdBursts::8           179                       # Per bank write bursts (Count)
system.mem_ctrl.dram.perBankRdBursts::9           271                       # Per bank write bursts (Count)
system.mem_ctrl.dram.perBankRdBursts::10          375                       # Per bank write bursts (Count)
system.mem_ctrl.dram.perBankRdBursts::11          298                       # Per bank write bursts (Count)
system.mem_ctrl.dram.perBankRdBursts::12          220                       # Per bank write bursts (Count)
system.mem_ctrl.dram.perBankRdBursts::13          194                       # Per bank write bursts (Count)
system.mem_ctrl.dram.perBankRdBursts::14          612                       # Per bank write bursts (Count)
system.mem_ctrl.dram.perBankRdBursts::15          512                       # Per bank write bursts (Count)
system.mem_ctrl.dram.perBankWrBursts::0            42                       # Per bank write bursts (Count)
system.mem_ctrl.dram.perBankWrBursts::1             2                       # Per bank write bursts (Count)
system.mem_ctrl.dram.perBankWrBursts::2            61                       # Per bank write bursts (Count)
system.mem_ctrl.dram.perBankWrBursts::3            23                       # Per bank write bursts (Count)
system.mem_ctrl.dram.perBankWrBursts::4            21                       # Per bank write bursts (Count)
system.mem_ctrl.dram.perBankWrBursts::5             1                       # Per bank write bursts (Count)
system.mem_ctrl.dram.perBankWrBursts::6            11                       # Per bank write bursts (Count)
system.mem_ctrl.dram.perBankWrBursts::7            27                       # Per bank write bursts (Count)
system.mem_ctrl.dram.perBankWrBursts::8             0                       # Per bank write bursts (Count)
system.mem_ctrl.dram.perBankWrBursts::9             2                       # Per bank write bursts (Count)
system.mem_ctrl.dram.perBankWrBursts::10           58                       # Per bank write bursts (Count)
system.mem_ctrl.dram.perBankWrBursts::11           55                       # Per bank write bursts (Count)
system.mem_ctrl.dram.perBankWrBursts::12           48                       # Per bank write bursts (Count)
system.mem_ctrl.dram.perBankWrBursts::13           30                       # Per bank write bursts (Count)
system.mem_ctrl.dram.perBankWrBursts::14          256                       # Per bank write bursts (Count)
system.mem_ctrl.dram.perBankWrBursts::15           19                       # Per bank write bursts (Count)
system.mem_ctrl.dram.totQLat                 85495555                       # Total ticks spent queuing (Tick)
system.mem_ctrl.dram.totBusLat               29060000                       # Total ticks spent in databus transfers (Tick)
system.mem_ctrl.dram.totMemAccLat           194470555                       # Total ticks spent from burst creation until serviced by the DRAM (Tick)
system.mem_ctrl.dram.avgQLat                 14710.18                       # Average queueing delay per DRAM burst ((Tick/Count))
system.mem_ctrl.dram.avgBusLat                5000.00                       # Average bus latency per DRAM burst ((Tick/Count))
system.mem_ctrl.dram.avgMemAccLat            33460.18                       # Average memory access latency per DRAM burst ((Tick/Count))
system.mem_ctrl.dram.readRowHits                 3195                       # Number of row buffer hits during reads (Count)
system.mem_ctrl.dram.writeRowHits                 477                       # Number of row buffer hits during writes (Count)
system.mem_ctrl.dram.readRowHitRate             54.97                       # Row buffer hit rate for reads (Ratio)
system.mem_ctrl.dram.writeRowHitRate            72.71                       # Row buffer hit rate for writes (Ratio)
system.mem_ctrl.dram.bytesPerActivate::samples         2799                       # Bytes accessed per row activation (Byte)
system.mem_ctrl.dram.bytesPerActivate::mean   148.030011                       # Bytes accessed per row activation (Byte)
system.mem_ctrl.dram.bytesPerActivate::gmean   113.604757                       # Bytes accessed per row activation (Byte)
system.mem_ctrl.dram.bytesPerActivate::stdev   141.295686                       # Bytes accessed per row activation (Byte)
system.mem_ctrl.dram.bytesPerActivate::0-127         1342     47.95%     47.95% # Bytes accessed per row activation (Byte)
system.mem_ctrl.dram.bytesPerActivate::128-255         1021     36.48%     84.42% # Bytes accessed per row activation (Byte)
system.mem_ctrl.dram.bytesPerActivate::256-383          239      8.54%     92.96% # Bytes accessed per row activation (Byte)
system.mem_ctrl.dram.bytesPerActivate::384-511           93      3.32%     96.28% # Bytes accessed per row activation (Byte)
system.mem_ctrl.dram.bytesPerActivate::512-639           46      1.64%     97.93% # Bytes accessed per row activation (Byte)
system.mem_ctrl.dram.bytesPerActivate::640-767           21      0.75%     98.68% # Bytes accessed per row activation (Byte)
system.mem_ctrl.dram.bytesPerActivate::768-895           10      0.36%     99.04% # Bytes accessed per row activation (Byte)
system.mem_ctrl.dram.bytesPerActivate::896-1023           14      0.50%     99.54% # Bytes accessed per row activation (Byte)
system.mem_ctrl.dram.bytesPerActivate::1024-1151           13      0.46%    100.00% # Bytes accessed per row activation (Byte)
system.mem_ctrl.dram.bytesPerActivate::total         2799                       # Bytes accessed per row activation (Byte)
system.mem_ctrl.dram.dramBytesRead             371968                       # Total bytes read (Byte)
system.mem_ctrl.dram.dramBytesWritten           41984                       # Total bytes written (Byte)
system.mem_ctrl.dram.avgRdBW               324.980750                       # Average DRAM read bandwidth in MiBytes/s ((Byte/Second))
system.mem_ctrl.dram.avgWrBW                36.680553                       # Average DRAM write bandwidth in MiBytes/s ((Byte/Second))
system.mem_ctrl.dram.peakBW                  12800.00                       # Theoretical peak bandwidth in MiByte/s ((Byte/Second))
system.mem_ctrl.dram.busUtil                     2.83                       # Data bus utilization in percentage (Ratio)
system.mem_ctrl.dram.busUtilRead                 2.54                       # Data bus utilization in percentage for reads (Ratio)
system.mem_ctrl.dram.busUtilWrite                0.29                       # Data bus utilization in percentage for writes (Ratio)
system.mem_ctrl.dram.pageHitRate                56.77                       # Row buffer hit rate, read and write combined (Ratio)
system.mem_ctrl.dram.power_state.pwrStateResidencyTicks::UNDEFINED   1144584718                       # Cumulative time (in ticks) in various power states (Tick)
system.mem_ctrl.dram.rank0.actEnergy         10674300                       # Energy for activate commands per rank (pJ) (Joule)
system.mem_ctrl.dram.rank0.preEnergy          5677320                       # Energy for precharge commands per rank (pJ) (Joule)
system.mem_ctrl.dram.rank0.readEnergy        22505280                       # Energy for read commands per rank (pJ) (Joule)
system.mem_ctrl.dram.rank0.writeEnergy         981360                       # Energy for write commands per rank (pJ) (Joule)
system.mem_ctrl.dram.rank0.refreshEnergy 90352080.000000                       # Energy for refresh commands per rank (pJ) (Joule)
system.mem_ctrl.dram.rank0.actBackEnergy    493612020                       # Energy for active background per rank (pJ) (Joule)
system.mem_ctrl.dram.rank0.preBackEnergy     23846880                       # Energy for precharge background per rank (pJ) (Joule)
system.mem_ctrl.dram.rank0.actPowerDownEnergy            0                       # Energy for active power-down per rank (pJ) (Joule)
system.mem_ctrl.dram.rank0.prePowerDownEnergy            0                       # Energy for precharge power-down per rank (pJ) (Joule)
system.mem_ctrl.dram.rank0.selfRefreshEnergy            0                       # Energy for self refresh per rank (pJ) (Joule)
system.mem_ctrl.dram.rank0.totalEnergy      647649240                       # Total energy per rank (pJ) (Joule)
system.mem_ctrl.dram.rank0.averagePower    565.837749                       # Core power per rank (mW) (Watt)
system.mem_ctrl.dram.rank0.totalIdleTime            0                       # Total Idle time Per DRAM Rank (Tick)
system.mem_ctrl.dram.rank0.pwrStateTime::IDLE     57706145                       # Time in different power states (Tick)
system.mem_ctrl.dram.rank0.pwrStateTime::REF     38220000                       # Time in different power states (Tick)
system.mem_ctrl.dram.rank0.pwrStateTime::SREF            0                       # Time in different power states (Tick)
system.mem_ctrl.dram.rank0.pwrStateTime::PRE_PDN            0                       # Time in different power states (Tick)
system.mem_ctrl.dram.rank0.pwrStateTime::ACT   1048658573                       # Time in different power states (Tick)
system.mem_ctrl.dram.rank0.pwrStateTime::ACT_PDN            0                       # Time in different power states (Tick)
system.mem_ctrl.dram.rank1.actEnergy          9296280                       # Energy for activate commands per rank (pJ) (Joule)
system.mem_ctrl.dram.rank1.preEnergy          4944885                       # Energy for precharge commands per rank (pJ) (Joule)
system.mem_ctrl.dram.rank1.readEnergy        18999540                       # Energy for read commands per rank (pJ) (Joule)
system.mem_ctrl.dram.rank1.writeEnergy        2442960                       # Energy for write commands per rank (pJ) (Joule)
system.mem_ctrl.dram.rank1.refreshEnergy 90352080.000000                       # Energy for refresh commands per rank (pJ) (Joule)
system.mem_ctrl.dram.rank1.actBackEnergy    482730720                       # Energy for active background per rank (pJ) (Joule)
system.mem_ctrl.dram.rank1.preBackEnergy     33010080                       # Energy for precharge background per rank (pJ) (Joule)
system.mem_ctrl.dram.rank1.actPowerDownEnergy            0                       # Energy for active power-down per rank (pJ) (Joule)
system.mem_ctrl.dram.rank1.prePowerDownEnergy            0                       # Energy for precharge power-down per rank (pJ) (Joule)
system.mem_ctrl.dram.rank1.selfRefreshEnergy            0                       # Energy for self refresh per rank (pJ) (Joule)
system.mem_ctrl.dram.rank1.totalEnergy      641776545                       # Total energy per rank (pJ) (Joule)
system.mem_ctrl.dram.rank1.averagePower    560.706896                       # Core power per rank (mW) (Watt)
system.mem_ctrl.dram.rank1.totalIdleTime            0                       # Total Idle time Per DRAM Rank (Tick)
system.mem_ctrl.dram.rank1.pwrStateTime::IDLE     81723462                       # Time in different power states (Tick)
system.mem_ctrl.dram.rank1.pwrStateTime::REF     38220000                       # Time in different power states (Tick)
system.mem_ctrl.dram.rank1.pwrStateTime::SREF            0                       # Time in different power states (Tick)
system.mem_ctrl.dram.rank1.pwrStateTime::PRE_PDN            0                       # Time in different power states (Tick)
system.mem_ctrl.dram.rank1.pwrStateTime::ACT   1024641256                       # Time in different power states (Tick)
system.mem_ctrl.dram.rank1.pwrStateTime::ACT_PDN            0                       # Time in different power states (Tick)
system.mem_ctrl.power_state.pwrStateResidencyTicks::UNDEFINED   1144584718                       # Cumulative time (in ticks) in various power states (Tick)
system.membus.transDist::ReadResp                5871                       # Transaction distribution (Count)
system.membus.transDist::WritebackDirty           845                       # Transaction distribution (Count)
system.membus.transDist::CleanEvict              5349                       # Transaction distribution (Count)
system.membus.transDist::UpgradeReq                 2                       # Transaction distribution (Count)
system.membus.transDist::ReadExReq                325                       # Transaction distribution (Count)
system.membus.transDist::ReadExResp               325                       # Transaction distribution (Count)
system.membus.transDist::ReadSharedReq           5869                       # Transaction distribution (Count)
system.membus.pktCount_system.cpu.l1d.mem_side_port::system.mem_ctrl.port         8606                       # Packet count per connected requestor and responder (Count)
system.membus.pktCount_system.cpu.l1d.mem_side_port::total         8606                       # Packet count per connected requestor and responder (Count)
system.membus.pktCount_system.cpu.l1i.mem_side_port::system.mem_ctrl.port         9978                       # Packet count per connected requestor and responder (Count)
system.membus.pktCount_system.cpu.l1i.mem_side_port::total         9978                       # Packet count per connected requestor and responder (Count)
system.membus.pktCount::total                   18584                       # Packet count per connected requestor and responder (Count)
system.membus.pktSize_system.cpu.l1d.mem_side_port::system.mem_ctrl.port       237632                       # Cumulative packet size per connected requestor and responder (Byte)
system.membus.pktSize_system.cpu.l1d.mem_side_port::total       237632                       # Cumulative packet size per connected requestor and responder (Byte)
system.membus.pktSize_system.cpu.l1i.mem_side_port::system.mem_ctrl.port       212864                       # Cumulative packet size per connected requestor and responder (Byte)
system.membus.pktSize_system.cpu.l1i.mem_side_port::total       212864                       # Cumulative packet size per connected requestor and responder (Byte)
system.membus.pktSize::total                   450496                       # Cumulative packet size per connected requestor and responder (Byte)
system.membus.snoops                                2                       # Total snoops (Count)
system.membus.snoopTraffic                        128                       # Total snoop traffic (Byte)
system.membus.snoopFanout::samples               6196                       # Request fanout histogram (Count)
system.membus.snoopFanout::mean              0.006617                       # Request fanout histogram (Count)
system.membus.snoopFanout::stdev             0.081083                       # Request fanout histogram (Count)
system.membus.snoopFanout::underflows               0      0.00%      0.00% # Request fanout histogram (Count)
system.membus.snoopFanout::0                     6155     99.34%     99.34% # Request fanout histogram (Count)
system.membus.snoopFanout::1                       41      0.66%    100.00% # Request fanout histogram (Count)
system.membus.snoopFanout::2                        0      0.00%    100.00% # Request fanout histogram (Count)
system.membus.snoopFanout::overflows                0      0.00%    100.00% # Request fanout histogram (Count)
system.membus.snoopFanout::min_value                0                       # Request fanout histogram (Count)
system.membus.snoopFanout::max_value                1                       # Request fanout histogram (Count)
system.membus.snoopFanout::total                 6196                       # Request fanout histogram (Count)
system.membus.power_state.pwrStateResidencyTicks::UNDEFINED   1144584718                       # Cumulative time (in ticks) in various power states (Tick)
system.membus.reqLayer2.occupancy           210261410                       # Layer occupancy (ticks) (Tick)
system.membus.reqLayer2.utilization               0.2                       # Layer utilization (Ratio)
system.membus.respLayer2.occupancy          194339134                       # Layer occupancy (ticks) (Tick)
system.membus.respLayer2.utilization              0.2                       # Layer utilization (Ratio)
system.membus.respLayer3.occupancy          227416120                       # Layer occupancy (ticks) (Tick)
system.membus.respLayer3.utilization              0.2                       # Layer utilization (Ratio)
system.membus.snoop_filter.totRequests          12390                       # Total number of requests made to the snoop filter. (Count)
system.membus.snoop_filter.hitSingleRequests         6193                       # Number of requests hitting in the snoop filter with a single holder of the requested data. (Count)
system.membus.snoop_filter.hitMultiRequests           42                       # Number of requests hitting in the snoop filter with multiple (>1) holders of the requested data. (Count)
system.membus.snoop_filter.totSnoops                0                       # Total number of snoops made to the snoop filter. (Count)
system.membus.snoop_filter.hitSingleSnoops            0                       # Number of snoops hitting in the snoop filter with a single holder of the requested data. (Count)
system.membus.snoop_filter.hitMultiSnoops            0                       # Number of snoops hitting in the snoop filter with multiple (>1) holders of the requested data. (Count)
system.workload.inst.arm                            0                       # number of arm instructions executed (Count)
system.workload.inst.quiesce                        0                       # number of quiesce instructions executed (Count)

---------- End Simulation Statistics   ----------
