
---------- Begin Simulation Statistics ----------
simSeconds                                   2.251774                       # Number of seconds simulated (Second)
simTicks                                 2251773677584                       # Number of ticks simulated (Tick)
finalTick                                2251773677584                       # Number of ticks from beginning of simulation (restored from checkpoints and never reset) (Tick)
simFreq                                  1000000000000                       # The number of ticks per simulated second ((Tick/Second))
hostSeconds                                    121.24                       # Real time elapsed on the host (Second)
hostTickRate                              18573529325                       # The number of ticks simulated per host second (ticks/s) ((Tick/Second))
hostMemory                                    8618296                       # Number of bytes of host memory used (Byte)
simInsts                                    105372735                       # Number of instructions simulated (Count)
simOps                                      177624970                       # Number of ops (including micro ops) simulated (Count)
hostInstRate                                   869156                       # Simulator instruction rate (inst/s) ((Count/Second))
hostOpRate                                    1465120                       # Simulator op (including micro ops) rate (op/s) ((Count/Second))
system.clk_domain.clock                         13333                       # Clock period in ticks (Tick)
system.clk_domain.voltage_domain.voltage            1                       # Voltage in Volts (Volt)
system.cpu.numCycles                        168887248                       # Number of cpu cycles simulated (Cycle)
system.cpu.cpi                               1.602754                       # CPI: cycles per instruction (core level) ((Cycle/Count))
system.cpu.ipc                               0.623926                       # IPC: instructions per cycle (core level) ((Count/Cycle))
system.cpu.numWorkItemsStarted                      0                       # Number of work items this cpu started (Count)
system.cpu.numWorkItemsCompleted                    0                       # Number of work items this cpu completed (Count)
system.cpu.commitStats0.numInsts            105373177                       # Number of instructions committed (thread level) (Count)
system.cpu.commitStats0.numOps              177625610                       # Number of ops (including micro ops) committed (thread level) (Count)
system.cpu.commitStats0.numInstsNotNOP              0                       # Number of instructions committed excluding NOPs or prefetches (Count)
system.cpu.commitStats0.numOpsNotNOP                0                       # Number of Ops (including micro ops) Simulated (Count)
system.cpu.commitStats0.cpi                  1.602754                       # CPI: cycles per instruction (thread level) ((Cycle/Count))
system.cpu.commitStats0.ipc                  0.623926                       # IPC: instructions per cycle (thread level) ((Count/Cycle))
system.cpu.commitStats0.numMemRefs                  0                       # Number of memory references committed (Count)
system.cpu.commitStats0.numFpInsts            2434117                       # Number of float instructions (Count)
system.cpu.commitStats0.numIntInsts         173902066                       # Number of integer instructions (Count)
system.cpu.commitStats0.numLoadInsts         23118748                       # Number of load instructions (Count)
system.cpu.commitStats0.numStoreInsts         9897604                       # Number of store instructions (Count)
system.cpu.commitStats0.numVecInsts                 0                       # Number of vector instructions (Count)
system.cpu.commitStats0.committedInstType::No_OpClass      2758839      1.55%      1.55% # Class of committed instruction. (Count)
system.cpu.commitStats0.committedInstType::IntAlu    140948186     79.35%     80.90% # Class of committed instruction. (Count)
system.cpu.commitStats0.committedInstType::IntMult          223      0.00%     80.90% # Class of committed instruction. (Count)
system.cpu.commitStats0.committedInstType::IntDiv        41000      0.02%     80.93% # Class of committed instruction. (Count)
system.cpu.commitStats0.committedInstType::FloatAdd       108219      0.06%     80.99% # Class of committed instruction. (Count)
system.cpu.commitStats0.committedInstType::FloatCmp            0      0.00%     80.99% # Class of committed instruction. (Count)
system.cpu.commitStats0.committedInstType::FloatCvt         1264      0.00%     80.99% # Class of committed instruction. (Count)
system.cpu.commitStats0.committedInstType::FloatMult            0      0.00%     80.99% # Class of committed instruction. (Count)
system.cpu.commitStats0.committedInstType::FloatMultAcc            0      0.00%     80.99% # Class of committed instruction. (Count)
system.cpu.commitStats0.committedInstType::FloatDiv            0      0.00%     80.99% # Class of committed instruction. (Count)
system.cpu.commitStats0.committedInstType::FloatMisc            0      0.00%     80.99% # Class of committed instruction. (Count)
system.cpu.commitStats0.committedInstType::FloatSqrt            0      0.00%     80.99% # Class of committed instruction. (Count)
system.cpu.commitStats0.committedInstType::SimdAdd         6400      0.00%     80.99% # Class of committed instruction. (Count)
system.cpu.commitStats0.committedInstType::SimdAddAcc            0      0.00%     80.99% # Class of committed instruction. (Count)
system.cpu.commitStats0.committedInstType::SimdAlu       111274      0.06%     81.06% # Class of committed instruction. (Count)
system.cpu.commitStats0.committedInstType::SimdCmp           12      0.00%     81.06% # Class of committed instruction. (Count)
system.cpu.commitStats0.committedInstType::SimdCvt        13290      0.01%     81.06% # Class of committed instruction. (Count)
system.cpu.commitStats0.committedInstType::SimdMisc       618687      0.35%     81.41% # Class of committed instruction. (Count)
system.cpu.commitStats0.committedInstType::SimdMult            0      0.00%     81.41% # Class of committed instruction. (Count)
system.cpu.commitStats0.committedInstType::SimdMultAcc            0      0.00%     81.41% # Class of committed instruction. (Count)
system.cpu.commitStats0.committedInstType::SimdMatMultAcc            0      0.00%     81.41% # Class of committed instruction. (Count)
system.cpu.commitStats0.committedInstType::SimdShift         1612      0.00%     81.41% # Class of committed instruction. (Count)
system.cpu.commitStats0.committedInstType::SimdShiftAcc            0      0.00%     81.41% # Class of committed instruction. (Count)
system.cpu.commitStats0.committedInstType::SimdDiv            0      0.00%     81.41% # Class of committed instruction. (Count)
system.cpu.commitStats0.committedInstType::SimdSqrt            0      0.00%     81.41% # Class of committed instruction. (Count)
system.cpu.commitStats0.committedInstType::SimdFloatAdd           63      0.00%     81.41% # Class of committed instruction. (Count)
system.cpu.commitStats0.committedInstType::SimdFloatAlu            0      0.00%     81.41% # Class of committed instruction. (Count)
system.cpu.commitStats0.committedInstType::SimdFloatCmp            0      0.00%     81.41% # Class of committed instruction. (Count)
system.cpu.commitStats0.committedInstType::SimdFloatCvt          126      0.00%     81.41% # Class of committed instruction. (Count)
system.cpu.commitStats0.committedInstType::SimdFloatDiv           63      0.00%     81.41% # Class of committed instruction. (Count)
system.cpu.commitStats0.committedInstType::SimdFloatMisc            0      0.00%     81.41% # Class of committed instruction. (Count)
system.cpu.commitStats0.committedInstType::SimdFloatMult            0      0.00%     81.41% # Class of committed instruction. (Count)
system.cpu.commitStats0.committedInstType::SimdFloatMultAcc            0      0.00%     81.41% # Class of committed instruction. (Count)
system.cpu.commitStats0.committedInstType::SimdFloatMatMultAcc            0      0.00%     81.41% # Class of committed instruction. (Count)
system.cpu.commitStats0.committedInstType::SimdFloatSqrt            0      0.00%     81.41% # Class of committed instruction. (Count)
system.cpu.commitStats0.committedInstType::SimdReduceAdd            0      0.00%     81.41% # Class of committed instruction. (Count)
system.cpu.commitStats0.committedInstType::SimdReduceAlu            0      0.00%     81.41% # Class of committed instruction. (Count)
system.cpu.commitStats0.committedInstType::SimdReduceCmp            0      0.00%     81.41% # Class of committed instruction. (Count)
system.cpu.commitStats0.committedInstType::SimdFloatReduceAdd            0      0.00%     81.41% # Class of committed instruction. (Count)
system.cpu.commitStats0.committedInstType::SimdFloatReduceCmp            0      0.00%     81.41% # Class of committed instruction. (Count)
system.cpu.commitStats0.committedInstType::SimdAes            0      0.00%     81.41% # Class of committed instruction. (Count)
system.cpu.commitStats0.committedInstType::SimdAesMix            0      0.00%     81.41% # Class of committed instruction. (Count)
system.cpu.commitStats0.committedInstType::SimdSha1Hash            0      0.00%     81.41% # Class of committed instruction. (Count)
system.cpu.commitStats0.committedInstType::SimdSha1Hash2            0      0.00%     81.41% # Class of committed instruction. (Count)
system.cpu.commitStats0.committedInstType::SimdSha256Hash            0      0.00%     81.41% # Class of committed instruction. (Count)
system.cpu.commitStats0.committedInstType::SimdSha256Hash2            0      0.00%     81.41% # Class of committed instruction. (Count)
system.cpu.commitStats0.committedInstType::SimdShaSigma2            0      0.00%     81.41% # Class of committed instruction. (Count)
system.cpu.commitStats0.committedInstType::SimdShaSigma3            0      0.00%     81.41% # Class of committed instruction. (Count)
system.cpu.commitStats0.committedInstType::SimdPredAlu            0      0.00%     81.41% # Class of committed instruction. (Count)
system.cpu.commitStats0.committedInstType::Matrix            0      0.00%     81.41% # Class of committed instruction. (Count)
system.cpu.commitStats0.committedInstType::MatrixMov            0      0.00%     81.41% # Class of committed instruction. (Count)
system.cpu.commitStats0.committedInstType::MatrixOP            0      0.00%     81.41% # Class of committed instruction. (Count)
system.cpu.commitStats0.committedInstType::MemRead     22451833     12.64%     94.05% # Class of committed instruction. (Count)
system.cpu.commitStats0.committedInstType::MemWrite      9196956      5.18%     99.23% # Class of committed instruction. (Count)
system.cpu.commitStats0.committedInstType::FloatMemRead       666915      0.38%     99.61% # Class of committed instruction. (Count)
system.cpu.commitStats0.committedInstType::FloatMemWrite       700648      0.39%    100.00% # Class of committed instruction. (Count)
system.cpu.commitStats0.committedInstType::IprAccess            0      0.00%    100.00% # Class of committed instruction. (Count)
system.cpu.commitStats0.committedInstType::InstPrefetch            0      0.00%    100.00% # Class of committed instruction. (Count)
system.cpu.commitStats0.committedInstType::SimdUnitStrideLoad            0      0.00%    100.00% # Class of committed instruction. (Count)
system.cpu.commitStats0.committedInstType::SimdUnitStrideStore            0      0.00%    100.00% # Class of committed instruction. (Count)
system.cpu.commitStats0.committedInstType::SimdUnitStrideMaskLoad            0      0.00%    100.00% # Class of committed instruction. (Count)
system.cpu.commitStats0.committedInstType::SimdUnitStrideMaskStore            0      0.00%    100.00% # Class of committed instruction. (Count)
system.cpu.commitStats0.committedInstType::SimdStridedLoad            0      0.00%    100.00% # Class of committed instruction. (Count)
system.cpu.commitStats0.committedInstType::SimdStridedStore            0      0.00%    100.00% # Class of committed instruction. (Count)
system.cpu.commitStats0.committedInstType::SimdIndexedLoad            0      0.00%    100.00% # Class of committed instruction. (Count)
system.cpu.commitStats0.committedInstType::SimdIndexedStore            0      0.00%    100.00% # Class of committed instruction. (Count)
system.cpu.commitStats0.committedInstType::SimdWholeRegisterLoad            0      0.00%    100.00% # Class of committed instruction. (Count)
system.cpu.commitStats0.committedInstType::SimdWholeRegisterStore            0      0.00%    100.00% # Class of committed instruction. (Count)
system.cpu.commitStats0.committedInstType::SimdUnitStrideFaultOnlyFirstLoad            0      0.00%    100.00% # Class of committed instruction. (Count)
system.cpu.commitStats0.committedInstType::SimdUnitStrideSegmentedLoad            0      0.00%    100.00% # Class of committed instruction. (Count)
system.cpu.commitStats0.committedInstType::SimdUnitStrideSegmentedStore            0      0.00%    100.00% # Class of committed instruction. (Count)
system.cpu.commitStats0.committedInstType::SimdExt            0      0.00%    100.00% # Class of committed instruction. (Count)
system.cpu.commitStats0.committedInstType::SimdFloatExt            0      0.00%    100.00% # Class of committed instruction. (Count)
system.cpu.commitStats0.committedInstType::SimdConfig            0      0.00%    100.00% # Class of committed instruction. (Count)
system.cpu.commitStats0.committedInstType::total    177625610                       # Class of committed instruction. (Count)
system.cpu.commitStats0.committedControl::IsControl     24992539                       # Class of control type instructions committed (Count)
system.cpu.commitStats0.committedControl::IsDirectControl     24822883                       # Class of control type instructions committed (Count)
system.cpu.commitStats0.committedControl::IsIndirectControl       169412                       # Class of control type instructions committed (Count)
system.cpu.commitStats0.committedControl::IsCondControl     21862236                       # Class of control type instructions committed (Count)
system.cpu.commitStats0.committedControl::IsUncondControl      3130059                       # Class of control type instructions committed (Count)
system.cpu.commitStats0.committedControl::IsCall       163369                       # Class of control type instructions committed (Count)
system.cpu.commitStats0.committedControl::IsReturn       163364                       # Class of control type instructions committed (Count)
system.cpu.exec_context.thread_0.numMatAluAccesses            0                       # Number of matrix alu accesses (Count)
system.cpu.exec_context.thread_0.numCallsReturns       326733                       # Number of times a function call or return occured (Count)
system.cpu.exec_context.thread_0.numMatInsts            0                       # Number of matrix instructions (Count)
system.cpu.exec_context.thread_0.numIdleCycles            0                       # Number of idle cycles (Cycle)
system.cpu.exec_context.thread_0.numBusyCycles    168887248                       # Number of busy cycles (Cycle)
system.cpu.exec_context.thread_0.notIdleFraction            1                       # Percentage of non-idle cycles (Ratio)
system.cpu.exec_context.thread_0.idleFraction            0                       # Percentage of idle cycles (Ratio)
system.cpu.executeStats0.numInsts                   0                       # Number of executed instructions (Count)
system.cpu.executeStats0.numNop                     0                       # Number of nop insts executed (Count)
system.cpu.executeStats0.numBranches                0                       # Number of branches executed (Count)
system.cpu.executeStats0.numLoadInsts               0                       # Number of load instructions executed (Count)
system.cpu.executeStats0.numStoreInsts       33016352                       # Number of stores executed (Count)
system.cpu.executeStats0.instRate                   0                       # Inst execution rate ((Count/Cycle))
system.cpu.executeStats0.numFpAluAccesses      2434117                       # Number of float alu accesses (Count)
system.cpu.executeStats0.numFpRegReads        2824547                       # Number of times the floating registers were read (Count)
system.cpu.executeStats0.numFpRegWrites       1523530                       # Number of times the floating registers were written (Count)
system.cpu.executeStats0.numIntAluAccesses    173902066                       # Number of integer alu accesses (Count)
system.cpu.executeStats0.numIntRegReads     185378587                       # Number of times the integer registers were read (Count)
system.cpu.executeStats0.numIntRegWrites    116612084                       # Number of times the integer registers were written (Count)
system.cpu.executeStats0.numMemRefs          33016352                       # Number of memory refs (Count)
system.cpu.executeStats0.numMiscRegReads     82896118                       # Number of times the Misc registers were read (Count)
system.cpu.executeStats0.numMiscRegWrites          711                       # Number of times the Misc registers were written (Count)
system.cpu.executeStats0.numVecAluAccesses            0                       # Number of vector alu accesses (Count)
system.cpu.executeStats0.numDiscardedOps            0                       # Number of ops (including micro ops) which were discarded before commit (Count)
system.cpu.fetchStats0.numInsts             105373177                       # Number of instructions fetched (thread level) (Count)
system.cpu.fetchStats0.numOps               177625610                       # Number of ops (including micro ops) fetched (thread level) (Count)
system.cpu.fetchStats0.fetchRate             0.623926                       # Number of inst fetches per cycle ((Count/Cycle))
system.cpu.fetchStats0.numBranches           24992539                       # Number of branches fetched (Count)
system.cpu.fetchStats0.branchRate            0.147984                       # Number of branch fetches per cycle (Ratio)
system.cpu.fetchStats0.numFetchSuspends             0                       # Number of times Execute suspended instruction fetching (Count)
system.cpu.interrupts.clk_domain.clock         213328                       # Clock period in ticks (Tick)
system.cpu.l1d.demandHits::cpu.data          32756855                       # number of demand (read+write) hits (Count)
system.cpu.l1d.demandHits::total             32756855                       # number of demand (read+write) hits (Count)
system.cpu.l1d.overallHits::cpu.data         32756855                       # number of overall hits (Count)
system.cpu.l1d.overallHits::total            32756855                       # number of overall hits (Count)
system.cpu.l1d.demandMisses::cpu.data          265516                       # number of demand (read+write) misses (Count)
system.cpu.l1d.demandMisses::total             265516                       # number of demand (read+write) misses (Count)
system.cpu.l1d.overallMisses::cpu.data         265516                       # number of overall misses (Count)
system.cpu.l1d.overallMisses::total            265516                       # number of overall misses (Count)
system.cpu.l1d.demandMissLatency::cpu.data  55648475420                       # number of demand (read+write) miss ticks (Tick)
system.cpu.l1d.demandMissLatency::total   55648475420                       # number of demand (read+write) miss ticks (Tick)
system.cpu.l1d.overallMissLatency::cpu.data  55648475420                       # number of overall miss ticks (Tick)
system.cpu.l1d.overallMissLatency::total  55648475420                       # number of overall miss ticks (Tick)
system.cpu.l1d.demandAccesses::cpu.data      33022371                       # number of demand (read+write) accesses (Count)
system.cpu.l1d.demandAccesses::total         33022371                       # number of demand (read+write) accesses (Count)
system.cpu.l1d.overallAccesses::cpu.data     33022371                       # number of overall (read+write) accesses (Count)
system.cpu.l1d.overallAccesses::total        33022371                       # number of overall (read+write) accesses (Count)
system.cpu.l1d.demandMissRate::cpu.data      0.008040                       # miss rate for demand accesses (Ratio)
system.cpu.l1d.demandMissRate::total         0.008040                       # miss rate for demand accesses (Ratio)
system.cpu.l1d.overallMissRate::cpu.data     0.008040                       # miss rate for overall accesses (Ratio)
system.cpu.l1d.overallMissRate::total        0.008040                       # miss rate for overall accesses (Ratio)
system.cpu.l1d.demandAvgMissLatency::cpu.data 209586.147050                       # average overall miss latency in ticks ((Tick/Count))
system.cpu.l1d.demandAvgMissLatency::total 209586.147050                       # average overall miss latency in ticks ((Tick/Count))
system.cpu.l1d.overallAvgMissLatency::cpu.data 209586.147050                       # average overall miss latency ((Tick/Count))
system.cpu.l1d.overallAvgMissLatency::total 209586.147050                       # average overall miss latency ((Tick/Count))
system.cpu.l1d.blockedCycles::no_mshrs              0                       # number of cycles access was blocked (Cycle)
system.cpu.l1d.blockedCycles::no_targets            0                       # number of cycles access was blocked (Cycle)
system.cpu.l1d.blockedCauses::no_mshrs              0                       # number of times access was blocked (Count)
system.cpu.l1d.blockedCauses::no_targets            0                       # number of times access was blocked (Count)
system.cpu.l1d.avgBlocked::no_mshrs               nan                       # average number of cycles each access was blocked ((Cycle/Count))
system.cpu.l1d.avgBlocked::no_targets             nan                       # average number of cycles each access was blocked ((Cycle/Count))
system.cpu.l1d.writebacks::writebacks          528815                       # number of writebacks (Count)
system.cpu.l1d.writebacks::total               528815                       # number of writebacks (Count)
system.cpu.l1d.demandMshrHits::cpu.data           568                       # number of demand (read+write) MSHR hits (Count)
system.cpu.l1d.demandMshrHits::total              568                       # number of demand (read+write) MSHR hits (Count)
system.cpu.l1d.overallMshrHits::cpu.data          568                       # number of overall MSHR hits (Count)
system.cpu.l1d.overallMshrHits::total             568                       # number of overall MSHR hits (Count)
system.cpu.l1d.demandMshrMisses::cpu.data       264948                       # number of demand (read+write) MSHR misses (Count)
system.cpu.l1d.demandMshrMisses::total         264948                       # number of demand (read+write) MSHR misses (Count)
system.cpu.l1d.overallMshrMisses::cpu.data       264948                       # number of overall MSHR misses (Count)
system.cpu.l1d.overallMshrMisses::cpu.l1d.prefetcher       525198                       # number of overall MSHR misses (Count)
system.cpu.l1d.overallMshrMisses::total        790146                       # number of overall MSHR misses (Count)
system.cpu.l1d.demandMshrMissLatency::cpu.data  52062165080                       # number of demand (read+write) MSHR miss ticks (Tick)
system.cpu.l1d.demandMshrMissLatency::total  52062165080                       # number of demand (read+write) MSHR miss ticks (Tick)
system.cpu.l1d.overallMshrMissLatency::cpu.data  52062165080                       # number of overall MSHR miss ticks (Tick)
system.cpu.l1d.overallMshrMissLatency::cpu.l1d.prefetcher 114612619220                       # number of overall MSHR miss ticks (Tick)
system.cpu.l1d.overallMshrMissLatency::total 166674784300                       # number of overall MSHR miss ticks (Tick)
system.cpu.l1d.demandMshrMissRate::cpu.data     0.008023                       # mshr miss ratio for demand accesses (Ratio)
system.cpu.l1d.demandMshrMissRate::total     0.008023                       # mshr miss ratio for demand accesses (Ratio)
system.cpu.l1d.overallMshrMissRate::cpu.data     0.008023                       # mshr miss ratio for overall accesses (Ratio)
system.cpu.l1d.overallMshrMissRate::cpu.l1d.prefetcher          inf                       # mshr miss ratio for overall accesses (Ratio)
system.cpu.l1d.overallMshrMissRate::total     0.023928                       # mshr miss ratio for overall accesses (Ratio)
system.cpu.l1d.demandAvgMshrMissLatency::cpu.data 196499.558706                       # average overall mshr miss latency ((Tick/Count))
system.cpu.l1d.demandAvgMshrMissLatency::total 196499.558706                       # average overall mshr miss latency ((Tick/Count))
system.cpu.l1d.overallAvgMshrMissLatency::cpu.data 196499.558706                       # average overall mshr miss latency ((Tick/Count))
system.cpu.l1d.overallAvgMshrMissLatency::cpu.l1d.prefetcher 218227.447972                       # average overall mshr miss latency ((Tick/Count))
system.cpu.l1d.overallAvgMshrMissLatency::total 210941.755448                       # average overall mshr miss latency ((Tick/Count))
system.cpu.l1d.replacements                    790106                       # number of replacements (Count)
system.cpu.l1d.HardPFReq.mshrMisses::cpu.l1d.prefetcher       525198                       # number of HardPFReq MSHR misses (Count)
system.cpu.l1d.HardPFReq.mshrMisses::total       525198                       # number of HardPFReq MSHR misses (Count)
system.cpu.l1d.HardPFReq.mshrMissLatency::cpu.l1d.prefetcher 114612619220                       # number of HardPFReq MSHR miss ticks (Tick)
system.cpu.l1d.HardPFReq.mshrMissLatency::total 114612619220                       # number of HardPFReq MSHR miss ticks (Tick)
system.cpu.l1d.HardPFReq.mshrMissRate::cpu.l1d.prefetcher          inf                       # mshr miss rate for HardPFReq accesses (Ratio)
system.cpu.l1d.HardPFReq.mshrMissRate::total          inf                       # mshr miss rate for HardPFReq accesses (Ratio)
system.cpu.l1d.HardPFReq.avgMshrMissLatency::cpu.l1d.prefetcher 218227.447972                       # average HardPFReq mshr miss latency ((Tick/Count))
system.cpu.l1d.HardPFReq.avgMshrMissLatency::total 218227.447972                       # average HardPFReq mshr miss latency ((Tick/Count))
system.cpu.l1d.LockedRMWReadReq.hits::cpu.data          468                       # number of LockedRMWReadReq hits (Count)
system.cpu.l1d.LockedRMWReadReq.hits::total          468                       # number of LockedRMWReadReq hits (Count)
system.cpu.l1d.LockedRMWReadReq.misses::cpu.data           24                       # number of LockedRMWReadReq misses (Count)
system.cpu.l1d.LockedRMWReadReq.misses::total           24                       # number of LockedRMWReadReq misses (Count)
system.cpu.l1d.LockedRMWReadReq.missLatency::cpu.data      5026541                       # number of LockedRMWReadReq miss ticks (Tick)
system.cpu.l1d.LockedRMWReadReq.missLatency::total      5026541                       # number of LockedRMWReadReq miss ticks (Tick)
system.cpu.l1d.LockedRMWReadReq.accesses::cpu.data          492                       # number of LockedRMWReadReq accesses(hits+misses) (Count)
system.cpu.l1d.LockedRMWReadReq.accesses::total          492                       # number of LockedRMWReadReq accesses(hits+misses) (Count)
system.cpu.l1d.LockedRMWReadReq.missRate::cpu.data     0.048780                       # miss rate for LockedRMWReadReq accesses (Ratio)
system.cpu.l1d.LockedRMWReadReq.missRate::total     0.048780                       # miss rate for LockedRMWReadReq accesses (Ratio)
system.cpu.l1d.LockedRMWReadReq.avgMissLatency::cpu.data 209439.208333                       # average LockedRMWReadReq miss latency ((Tick/Count))
system.cpu.l1d.LockedRMWReadReq.avgMissLatency::total 209439.208333                       # average LockedRMWReadReq miss latency ((Tick/Count))
system.cpu.l1d.LockedRMWReadReq.mshrMisses::cpu.data           24                       # number of LockedRMWReadReq MSHR misses (Count)
system.cpu.l1d.LockedRMWReadReq.mshrMisses::total           24                       # number of LockedRMWReadReq MSHR misses (Count)
system.cpu.l1d.LockedRMWReadReq.mshrMissLatency::cpu.data     15972934                       # number of LockedRMWReadReq MSHR miss ticks (Tick)
system.cpu.l1d.LockedRMWReadReq.mshrMissLatency::total     15972934                       # number of LockedRMWReadReq MSHR miss ticks (Tick)
system.cpu.l1d.LockedRMWReadReq.mshrMissRate::cpu.data     0.048780                       # mshr miss rate for LockedRMWReadReq accesses (Ratio)
system.cpu.l1d.LockedRMWReadReq.mshrMissRate::total     0.048780                       # mshr miss rate for LockedRMWReadReq accesses (Ratio)
system.cpu.l1d.LockedRMWReadReq.avgMshrMissLatency::cpu.data 665538.916667                       # average LockedRMWReadReq mshr miss latency ((Tick/Count))
system.cpu.l1d.LockedRMWReadReq.avgMshrMissLatency::total 665538.916667                       # average LockedRMWReadReq mshr miss latency ((Tick/Count))
system.cpu.l1d.LockedRMWWriteReq.hits::cpu.data          492                       # number of LockedRMWWriteReq hits (Count)
system.cpu.l1d.LockedRMWWriteReq.hits::total          492                       # number of LockedRMWWriteReq hits (Count)
system.cpu.l1d.LockedRMWWriteReq.accesses::cpu.data          492                       # number of LockedRMWWriteReq accesses(hits+misses) (Count)
system.cpu.l1d.LockedRMWWriteReq.accesses::total          492                       # number of LockedRMWWriteReq accesses(hits+misses) (Count)
system.cpu.l1d.ReadReq.hits::cpu.data        22880116                       # number of ReadReq hits (Count)
system.cpu.l1d.ReadReq.hits::total           22880116                       # number of ReadReq hits (Count)
system.cpu.l1d.ReadReq.misses::cpu.data        242743                       # number of ReadReq misses (Count)
system.cpu.l1d.ReadReq.misses::total           242743                       # number of ReadReq misses (Count)
system.cpu.l1d.ReadReq.missLatency::cpu.data  51232559154                       # number of ReadReq miss ticks (Tick)
system.cpu.l1d.ReadReq.missLatency::total  51232559154                       # number of ReadReq miss ticks (Tick)
system.cpu.l1d.ReadReq.accesses::cpu.data     23122859                       # number of ReadReq accesses(hits+misses) (Count)
system.cpu.l1d.ReadReq.accesses::total       23122859                       # number of ReadReq accesses(hits+misses) (Count)
system.cpu.l1d.ReadReq.missRate::cpu.data     0.010498                       # miss rate for ReadReq accesses (Ratio)
system.cpu.l1d.ReadReq.missRate::total       0.010498                       # miss rate for ReadReq accesses (Ratio)
system.cpu.l1d.ReadReq.avgMissLatency::cpu.data 211056.793209                       # average ReadReq miss latency ((Tick/Count))
system.cpu.l1d.ReadReq.avgMissLatency::total 211056.793209                       # average ReadReq miss latency ((Tick/Count))
system.cpu.l1d.ReadReq.mshrHits::cpu.data          486                       # number of ReadReq MSHR hits (Count)
system.cpu.l1d.ReadReq.mshrHits::total            486                       # number of ReadReq MSHR hits (Count)
system.cpu.l1d.ReadReq.mshrMisses::cpu.data       242257                       # number of ReadReq MSHR misses (Count)
system.cpu.l1d.ReadReq.mshrMisses::total       242257                       # number of ReadReq MSHR misses (Count)
system.cpu.l1d.ReadReq.mshrMissLatency::cpu.data  47954641104                       # number of ReadReq MSHR miss ticks (Tick)
system.cpu.l1d.ReadReq.mshrMissLatency::total  47954641104                       # number of ReadReq MSHR miss ticks (Tick)
system.cpu.l1d.ReadReq.mshrMissRate::cpu.data     0.010477                       # mshr miss rate for ReadReq accesses (Ratio)
system.cpu.l1d.ReadReq.mshrMissRate::total     0.010477                       # mshr miss rate for ReadReq accesses (Ratio)
system.cpu.l1d.ReadReq.avgMshrMissLatency::cpu.data 197949.454934                       # average ReadReq mshr miss latency ((Tick/Count))
system.cpu.l1d.ReadReq.avgMshrMissLatency::total 197949.454934                       # average ReadReq mshr miss latency ((Tick/Count))
system.cpu.l1d.WriteReq.hits::cpu.data        9876739                       # number of WriteReq hits (Count)
system.cpu.l1d.WriteReq.hits::total           9876739                       # number of WriteReq hits (Count)
system.cpu.l1d.WriteReq.misses::cpu.data        22773                       # number of WriteReq misses (Count)
system.cpu.l1d.WriteReq.misses::total           22773                       # number of WriteReq misses (Count)
system.cpu.l1d.WriteReq.missLatency::cpu.data   4415916266                       # number of WriteReq miss ticks (Tick)
system.cpu.l1d.WriteReq.missLatency::total   4415916266                       # number of WriteReq miss ticks (Tick)
system.cpu.l1d.WriteReq.accesses::cpu.data      9899512                       # number of WriteReq accesses(hits+misses) (Count)
system.cpu.l1d.WriteReq.accesses::total       9899512                       # number of WriteReq accesses(hits+misses) (Count)
system.cpu.l1d.WriteReq.missRate::cpu.data     0.002300                       # miss rate for WriteReq accesses (Ratio)
system.cpu.l1d.WriteReq.missRate::total      0.002300                       # miss rate for WriteReq accesses (Ratio)
system.cpu.l1d.WriteReq.avgMissLatency::cpu.data 193910.168445                       # average WriteReq miss latency ((Tick/Count))
system.cpu.l1d.WriteReq.avgMissLatency::total 193910.168445                       # average WriteReq miss latency ((Tick/Count))
system.cpu.l1d.WriteReq.mshrHits::cpu.data           82                       # number of WriteReq MSHR hits (Count)
system.cpu.l1d.WriteReq.mshrHits::total            82                       # number of WriteReq MSHR hits (Count)
system.cpu.l1d.WriteReq.mshrMisses::cpu.data        22691                       # number of WriteReq MSHR misses (Count)
system.cpu.l1d.WriteReq.mshrMisses::total        22691                       # number of WriteReq MSHR misses (Count)
system.cpu.l1d.WriteReq.mshrMissLatency::cpu.data   4107523976                       # number of WriteReq MSHR miss ticks (Tick)
system.cpu.l1d.WriteReq.mshrMissLatency::total   4107523976                       # number of WriteReq MSHR miss ticks (Tick)
system.cpu.l1d.WriteReq.mshrMissRate::cpu.data     0.002292                       # mshr miss rate for WriteReq accesses (Ratio)
system.cpu.l1d.WriteReq.mshrMissRate::total     0.002292                       # mshr miss rate for WriteReq accesses (Ratio)
system.cpu.l1d.WriteReq.avgMshrMissLatency::cpu.data 181019.962805                       # average WriteReq mshr miss latency ((Tick/Count))
system.cpu.l1d.WriteReq.avgMshrMissLatency::total 181019.962805                       # average WriteReq mshr miss latency ((Tick/Count))
system.cpu.l1d.power_state.pwrStateResidencyTicks::UNDEFINED 2251773677584                       # Cumulative time (in ticks) in various power states (Tick)
system.cpu.l1d.prefetcher.demandMshrMisses       264948                       # demands not covered by prefetchs (Count)
system.cpu.l1d.prefetcher.pfIssued            1323677                       # number of hwpf issued (Count)
system.cpu.l1d.prefetcher.pfUnused             113986                       # number of HardPF blocks evicted w/o reference (Count)
system.cpu.l1d.prefetcher.pfUseful             410625                       # number of useful prefetch (Count)
system.cpu.l1d.prefetcher.pfUsefulButMiss            0                       # number of hit on prefetch but cache block is not in an usable state (Count)
system.cpu.l1d.prefetcher.accuracy           0.310215                       # accuracy of the prefetcher (Count)
system.cpu.l1d.prefetcher.coverage           0.607817                       # coverage brought by this prefetcher (Count)
system.cpu.l1d.prefetcher.pfHitInCache         797453                       # number of prefetches hitting in cache (Count)
system.cpu.l1d.prefetcher.pfHitInMSHR            1015                       # number of prefetches hitting in a MSHR (Count)
system.cpu.l1d.prefetcher.pfHitInWB                11                       # number of prefetches hit in the Write Buffer (Count)
system.cpu.l1d.prefetcher.pfLate               798479                       # number of late prefetches (hitting in cache, MSHR or WB) (Count)
system.cpu.l1d.prefetcher.pfIdentified        1323693                       # number of prefetch candidates identified (Count)
system.cpu.l1d.prefetcher.pfBufferHit               0                       # number of redundant prefetches already in prefetch queue (Count)
system.cpu.l1d.prefetcher.pfInCache                 0                       # number of redundant prefetches already in cache/mshr dropped (Count)
system.cpu.l1d.prefetcher.pfRemovedDemand            8                       # number of prefetches dropped due to a demand for the same address (Count)
system.cpu.l1d.prefetcher.pfRemovedFull             0                       # number of prefetches dropped due to prefetch queue size (Count)
system.cpu.l1d.prefetcher.pfSpanPage            28637                       # number of prefetches that crossed the page (Count)
system.cpu.l1d.prefetcher.pfUsefulSpanPage        18726                       # number of prefetches that is useful and crossed the page (Count)
system.cpu.l1d.prefetcher.power_state.pwrStateResidencyTicks::UNDEFINED 2251773677584                       # Cumulative time (in ticks) in various power states (Tick)
system.cpu.l1d.tags.tagsInUse               63.999654                       # Average ticks per tags in use ((Tick/Count))
system.cpu.l1d.tags.totalRefs                33547598                       # Total number of references to valid blocks. (Count)
system.cpu.l1d.tags.sampledRefs                790106                       # Sample count of references to valid blocks. (Count)
system.cpu.l1d.tags.avgRefs                 42.459617                       # Average number of references to valid blocks. ((Count/Count))
system.cpu.l1d.tags.warmupTick                 479988                       # The tick when the warmup percentage was hit. (Tick)
system.cpu.l1d.tags.occupancies::cpu.data    24.810882                       # Average occupied blocks per tick, per requestor ((Count/Tick))
system.cpu.l1d.tags.occupancies::cpu.l1d.prefetcher    39.188773                       # Average occupied blocks per tick, per requestor ((Count/Tick))
system.cpu.l1d.tags.avgOccs::cpu.data        0.387670                       # Average percentage of cache occupancy ((Ratio/Tick))
system.cpu.l1d.tags.avgOccs::cpu.l1d.prefetcher     0.612325                       # Average percentage of cache occupancy ((Ratio/Tick))
system.cpu.l1d.tags.avgOccs::total           0.999995                       # Average percentage of cache occupancy ((Ratio/Tick))
system.cpu.l1d.tags.occupanciesTaskId::1022           48                       # Occupied blocks per task id (Count)
system.cpu.l1d.tags.occupanciesTaskId::1024           16                       # Occupied blocks per task id (Count)
system.cpu.l1d.tags.ageTaskId_1022::0              18                       # Occupied blocks per task id, per block age (Count)
system.cpu.l1d.tags.ageTaskId_1022::1              30                       # Occupied blocks per task id, per block age (Count)
system.cpu.l1d.tags.ageTaskId_1024::0              14                       # Occupied blocks per task id, per block age (Count)
system.cpu.l1d.tags.ageTaskId_1024::1               2                       # Occupied blocks per task id, per block age (Count)
system.cpu.l1d.tags.ratioOccsTaskId::1022     0.750000                       # Ratio of occupied blocks and all blocks, per task id (Ratio)
system.cpu.l1d.tags.ratioOccsTaskId::1024     0.250000                       # Ratio of occupied blocks and all blocks, per task id (Ratio)
system.cpu.l1d.tags.tagAccesses              66836880                       # Number of tag accesses (Count)
system.cpu.l1d.tags.dataAccesses             66836880                       # Number of data accesses (Count)
system.cpu.l1d.tags.power_state.pwrStateResidencyTicks::UNDEFINED 2251773677584                       # Cumulative time (in ticks) in various power states (Tick)
system.cpu.l1i.demandHits::cpu.inst         131551915                       # number of demand (read+write) hits (Count)
system.cpu.l1i.demandHits::total            131551915                       # number of demand (read+write) hits (Count)
system.cpu.l1i.overallHits::cpu.inst        131551915                       # number of overall hits (Count)
system.cpu.l1i.overallHits::total           131551915                       # number of overall hits (Count)
system.cpu.l1i.demandMisses::cpu.inst           20290                       # number of demand (read+write) misses (Count)
system.cpu.l1i.demandMisses::total              20290                       # number of demand (read+write) misses (Count)
system.cpu.l1i.overallMisses::cpu.inst          20290                       # number of overall misses (Count)
system.cpu.l1i.overallMisses::total             20290                       # number of overall misses (Count)
system.cpu.l1i.demandMissLatency::cpu.inst   4391623540                       # number of demand (read+write) miss ticks (Tick)
system.cpu.l1i.demandMissLatency::total    4391623540                       # number of demand (read+write) miss ticks (Tick)
system.cpu.l1i.overallMissLatency::cpu.inst   4391623540                       # number of overall miss ticks (Tick)
system.cpu.l1i.overallMissLatency::total   4391623540                       # number of overall miss ticks (Tick)
system.cpu.l1i.demandAccesses::cpu.inst     131572205                       # number of demand (read+write) accesses (Count)
system.cpu.l1i.demandAccesses::total        131572205                       # number of demand (read+write) accesses (Count)
system.cpu.l1i.overallAccesses::cpu.inst    131572205                       # number of overall (read+write) accesses (Count)
system.cpu.l1i.overallAccesses::total       131572205                       # number of overall (read+write) accesses (Count)
system.cpu.l1i.demandMissRate::cpu.inst      0.000154                       # miss rate for demand accesses (Ratio)
system.cpu.l1i.demandMissRate::total         0.000154                       # miss rate for demand accesses (Ratio)
system.cpu.l1i.overallMissRate::cpu.inst     0.000154                       # miss rate for overall accesses (Ratio)
system.cpu.l1i.overallMissRate::total        0.000154                       # miss rate for overall accesses (Ratio)
system.cpu.l1i.demandAvgMissLatency::cpu.inst 216442.757023                       # average overall miss latency in ticks ((Tick/Count))
system.cpu.l1i.demandAvgMissLatency::total 216442.757023                       # average overall miss latency in ticks ((Tick/Count))
system.cpu.l1i.overallAvgMissLatency::cpu.inst 216442.757023                       # average overall miss latency ((Tick/Count))
system.cpu.l1i.overallAvgMissLatency::total 216442.757023                       # average overall miss latency ((Tick/Count))
system.cpu.l1i.blockedCycles::no_mshrs              0                       # number of cycles access was blocked (Cycle)
system.cpu.l1i.blockedCycles::no_targets            0                       # number of cycles access was blocked (Cycle)
system.cpu.l1i.blockedCauses::no_mshrs              0                       # number of times access was blocked (Count)
system.cpu.l1i.blockedCauses::no_targets            0                       # number of times access was blocked (Count)
system.cpu.l1i.avgBlocked::no_mshrs               nan                       # average number of cycles each access was blocked ((Cycle/Count))
system.cpu.l1i.avgBlocked::no_targets             nan                       # average number of cycles each access was blocked ((Cycle/Count))
system.cpu.l1i.demandMshrHits::cpu.inst           197                       # number of demand (read+write) MSHR hits (Count)
system.cpu.l1i.demandMshrHits::total              197                       # number of demand (read+write) MSHR hits (Count)
system.cpu.l1i.overallMshrHits::cpu.inst          197                       # number of overall MSHR hits (Count)
system.cpu.l1i.overallMshrHits::total             197                       # number of overall MSHR hits (Count)
system.cpu.l1i.demandMshrMisses::cpu.inst        20093                       # number of demand (read+write) MSHR misses (Count)
system.cpu.l1i.demandMshrMisses::total          20093                       # number of demand (read+write) MSHR misses (Count)
system.cpu.l1i.overallMshrMisses::cpu.inst        20093                       # number of overall MSHR misses (Count)
system.cpu.l1i.overallMshrMisses::cpu.l1i.prefetcher        34854                       # number of overall MSHR misses (Count)
system.cpu.l1i.overallMshrMisses::total         54947                       # number of overall MSHR misses (Count)
system.cpu.l1i.demandMshrMissLatency::cpu.inst   4101630790                       # number of demand (read+write) MSHR miss ticks (Tick)
system.cpu.l1i.demandMshrMissLatency::total   4101630790                       # number of demand (read+write) MSHR miss ticks (Tick)
system.cpu.l1i.overallMshrMissLatency::cpu.inst   4101630790                       # number of overall MSHR miss ticks (Tick)
system.cpu.l1i.overallMshrMissLatency::cpu.l1i.prefetcher   8894834207                       # number of overall MSHR miss ticks (Tick)
system.cpu.l1i.overallMshrMissLatency::total  12996464997                       # number of overall MSHR miss ticks (Tick)
system.cpu.l1i.demandMshrMissRate::cpu.inst     0.000153                       # mshr miss ratio for demand accesses (Ratio)
system.cpu.l1i.demandMshrMissRate::total     0.000153                       # mshr miss ratio for demand accesses (Ratio)
system.cpu.l1i.overallMshrMissRate::cpu.inst     0.000153                       # mshr miss ratio for overall accesses (Ratio)
system.cpu.l1i.overallMshrMissRate::cpu.l1i.prefetcher          inf                       # mshr miss ratio for overall accesses (Ratio)
system.cpu.l1i.overallMshrMissRate::total     0.000418                       # mshr miss ratio for overall accesses (Ratio)
system.cpu.l1i.demandAvgMshrMissLatency::cpu.inst 204132.324193                       # average overall mshr miss latency ((Tick/Count))
system.cpu.l1i.demandAvgMshrMissLatency::total 204132.324193                       # average overall mshr miss latency ((Tick/Count))
system.cpu.l1i.overallAvgMshrMissLatency::cpu.inst 204132.324193                       # average overall mshr miss latency ((Tick/Count))
system.cpu.l1i.overallAvgMshrMissLatency::cpu.l1i.prefetcher 255202.679951                       # average overall mshr miss latency ((Tick/Count))
system.cpu.l1i.overallAvgMshrMissLatency::total 236527.289879                       # average overall mshr miss latency ((Tick/Count))
system.cpu.l1i.replacements                     54881                       # number of replacements (Count)
system.cpu.l1i.HardPFReq.mshrMisses::cpu.l1i.prefetcher        34854                       # number of HardPFReq MSHR misses (Count)
system.cpu.l1i.HardPFReq.mshrMisses::total        34854                       # number of HardPFReq MSHR misses (Count)
system.cpu.l1i.HardPFReq.mshrMissLatency::cpu.l1i.prefetcher   8894834207                       # number of HardPFReq MSHR miss ticks (Tick)
system.cpu.l1i.HardPFReq.mshrMissLatency::total   8894834207                       # number of HardPFReq MSHR miss ticks (Tick)
system.cpu.l1i.HardPFReq.mshrMissRate::cpu.l1i.prefetcher          inf                       # mshr miss rate for HardPFReq accesses (Ratio)
system.cpu.l1i.HardPFReq.mshrMissRate::total          inf                       # mshr miss rate for HardPFReq accesses (Ratio)
system.cpu.l1i.HardPFReq.avgMshrMissLatency::cpu.l1i.prefetcher 255202.679951                       # average HardPFReq mshr miss latency ((Tick/Count))
system.cpu.l1i.HardPFReq.avgMshrMissLatency::total 255202.679951                       # average HardPFReq mshr miss latency ((Tick/Count))
system.cpu.l1i.ReadReq.hits::cpu.inst       131551915                       # number of ReadReq hits (Count)
system.cpu.l1i.ReadReq.hits::total          131551915                       # number of ReadReq hits (Count)
system.cpu.l1i.ReadReq.misses::cpu.inst         20290                       # number of ReadReq misses (Count)
system.cpu.l1i.ReadReq.misses::total            20290                       # number of ReadReq misses (Count)
system.cpu.l1i.ReadReq.missLatency::cpu.inst   4391623540                       # number of ReadReq miss ticks (Tick)
system.cpu.l1i.ReadReq.missLatency::total   4391623540                       # number of ReadReq miss ticks (Tick)
system.cpu.l1i.ReadReq.accesses::cpu.inst    131572205                       # number of ReadReq accesses(hits+misses) (Count)
system.cpu.l1i.ReadReq.accesses::total      131572205                       # number of ReadReq accesses(hits+misses) (Count)
system.cpu.l1i.ReadReq.missRate::cpu.inst     0.000154                       # miss rate for ReadReq accesses (Ratio)
system.cpu.l1i.ReadReq.missRate::total       0.000154                       # miss rate for ReadReq accesses (Ratio)
system.cpu.l1i.ReadReq.avgMissLatency::cpu.inst 216442.757023                       # average ReadReq miss latency ((Tick/Count))
system.cpu.l1i.ReadReq.avgMissLatency::total 216442.757023                       # average ReadReq miss latency ((Tick/Count))
system.cpu.l1i.ReadReq.mshrHits::cpu.inst          197                       # number of ReadReq MSHR hits (Count)
system.cpu.l1i.ReadReq.mshrHits::total            197                       # number of ReadReq MSHR hits (Count)
system.cpu.l1i.ReadReq.mshrMisses::cpu.inst        20093                       # number of ReadReq MSHR misses (Count)
system.cpu.l1i.ReadReq.mshrMisses::total        20093                       # number of ReadReq MSHR misses (Count)
system.cpu.l1i.ReadReq.mshrMissLatency::cpu.inst   4101630790                       # number of ReadReq MSHR miss ticks (Tick)
system.cpu.l1i.ReadReq.mshrMissLatency::total   4101630790                       # number of ReadReq MSHR miss ticks (Tick)
system.cpu.l1i.ReadReq.mshrMissRate::cpu.inst     0.000153                       # mshr miss rate for ReadReq accesses (Ratio)
system.cpu.l1i.ReadReq.mshrMissRate::total     0.000153                       # mshr miss rate for ReadReq accesses (Ratio)
system.cpu.l1i.ReadReq.avgMshrMissLatency::cpu.inst 204132.324193                       # average ReadReq mshr miss latency ((Tick/Count))
system.cpu.l1i.ReadReq.avgMshrMissLatency::total 204132.324193                       # average ReadReq mshr miss latency ((Tick/Count))
system.cpu.l1i.power_state.pwrStateResidencyTicks::UNDEFINED 2251773677584                       # Cumulative time (in ticks) in various power states (Tick)
system.cpu.l1i.prefetcher.demandMshrMisses        20093                       # demands not covered by prefetchs (Count)
system.cpu.l1i.prefetcher.pfIssued              69243                       # number of hwpf issued (Count)
system.cpu.l1i.prefetcher.pfUnused              19867                       # number of HardPF blocks evicted w/o reference (Count)
system.cpu.l1i.prefetcher.pfUseful              14767                       # number of useful prefetch (Count)
system.cpu.l1i.prefetcher.pfUsefulButMiss            0                       # number of hit on prefetch but cache block is not in an usable state (Count)
system.cpu.l1i.prefetcher.accuracy           0.213263                       # accuracy of the prefetcher (Count)
system.cpu.l1i.prefetcher.coverage           0.423609                       # coverage brought by this prefetcher (Count)
system.cpu.l1i.prefetcher.pfHitInCache          33832                       # number of prefetches hitting in cache (Count)
system.cpu.l1i.prefetcher.pfHitInMSHR             555                       # number of prefetches hitting in a MSHR (Count)
system.cpu.l1i.prefetcher.pfHitInWB                 2                       # number of prefetches hit in the Write Buffer (Count)
system.cpu.l1i.prefetcher.pfLate                34389                       # number of late prefetches (hitting in cache, MSHR or WB) (Count)
system.cpu.l1i.prefetcher.pfIdentified          69327                       # number of prefetch candidates identified (Count)
system.cpu.l1i.prefetcher.pfBufferHit               0                       # number of redundant prefetches already in prefetch queue (Count)
system.cpu.l1i.prefetcher.pfInCache                 0                       # number of redundant prefetches already in cache/mshr dropped (Count)
system.cpu.l1i.prefetcher.pfRemovedDemand            4                       # number of prefetches dropped due to a demand for the same address (Count)
system.cpu.l1i.prefetcher.pfRemovedFull             0                       # number of prefetches dropped due to prefetch queue size (Count)
system.cpu.l1i.prefetcher.pfSpanPage              787                       # number of prefetches that crossed the page (Count)
system.cpu.l1i.prefetcher.pfUsefulSpanPage          261                       # number of prefetches that is useful and crossed the page (Count)
system.cpu.l1i.prefetcher.power_state.pwrStateResidencyTicks::UNDEFINED 2251773677584                       # Cumulative time (in ticks) in various power states (Tick)
system.cpu.l1i.tags.tagsInUse               63.998890                       # Average ticks per tags in use ((Tick/Count))
system.cpu.l1i.tags.totalRefs               101534881                       # Total number of references to valid blocks. (Count)
system.cpu.l1i.tags.sampledRefs                 54881                       # Sample count of references to valid blocks. (Count)
system.cpu.l1i.tags.avgRefs               1850.091671                       # Average number of references to valid blocks. ((Count/Count))
system.cpu.l1i.tags.warmupTick                 199995                       # The tick when the warmup percentage was hit. (Tick)
system.cpu.l1i.tags.occupancies::cpu.inst    18.604983                       # Average occupied blocks per tick, per requestor ((Count/Tick))
system.cpu.l1i.tags.occupancies::cpu.l1i.prefetcher    45.393907                       # Average occupied blocks per tick, per requestor ((Count/Tick))
system.cpu.l1i.tags.avgOccs::cpu.inst        0.290703                       # Average percentage of cache occupancy ((Ratio/Tick))
system.cpu.l1i.tags.avgOccs::cpu.l1i.prefetcher     0.709280                       # Average percentage of cache occupancy ((Ratio/Tick))
system.cpu.l1i.tags.avgOccs::total           0.999983                       # Average percentage of cache occupancy ((Ratio/Tick))
system.cpu.l1i.tags.occupanciesTaskId::1022           47                       # Occupied blocks per task id (Count)
system.cpu.l1i.tags.occupanciesTaskId::1024           17                       # Occupied blocks per task id (Count)
system.cpu.l1i.tags.ageTaskId_1022::0               4                       # Occupied blocks per task id, per block age (Count)
system.cpu.l1i.tags.ageTaskId_1022::1               1                       # Occupied blocks per task id, per block age (Count)
system.cpu.l1i.tags.ageTaskId_1022::2              12                       # Occupied blocks per task id, per block age (Count)
system.cpu.l1i.tags.ageTaskId_1022::4              30                       # Occupied blocks per task id, per block age (Count)
system.cpu.l1i.tags.ageTaskId_1024::0               2                       # Occupied blocks per task id, per block age (Count)
system.cpu.l1i.tags.ageTaskId_1024::2               4                       # Occupied blocks per task id, per block age (Count)
system.cpu.l1i.tags.ageTaskId_1024::4              11                       # Occupied blocks per task id, per block age (Count)
system.cpu.l1i.tags.ratioOccsTaskId::1022     0.734375                       # Ratio of occupied blocks and all blocks, per task id (Ratio)
system.cpu.l1i.tags.ratioOccsTaskId::1024     0.265625                       # Ratio of occupied blocks and all blocks, per task id (Ratio)
system.cpu.l1i.tags.tagAccesses             263199355                       # Number of tag accesses (Count)
system.cpu.l1i.tags.dataAccesses            263199355                       # Number of data accesses (Count)
system.cpu.l1i.tags.power_state.pwrStateResidencyTicks::UNDEFINED 2251773677584                       # Cumulative time (in ticks) in various power states (Tick)
system.cpu.mmu.dtb.rdAccesses                23123618                       # TLB accesses on read requests (Count)
system.cpu.mmu.dtb.wrAccesses                 9900219                       # TLB accesses on write requests (Count)
system.cpu.mmu.dtb.rdMisses                      1830                       # TLB misses on read requests (Count)
system.cpu.mmu.dtb.wrMisses                       491                       # TLB misses on write requests (Count)
system.cpu.mmu.dtb.walker.power_state.pwrStateResidencyTicks::UNDEFINED 2251773677584                       # Cumulative time (in ticks) in various power states (Tick)
system.cpu.mmu.itb.rdAccesses                       0                       # TLB accesses on read requests (Count)
system.cpu.mmu.itb.wrAccesses               131572319                       # TLB accesses on write requests (Count)
system.cpu.mmu.itb.rdMisses                         0                       # TLB misses on read requests (Count)
system.cpu.mmu.itb.wrMisses                       483                       # TLB misses on write requests (Count)
system.cpu.mmu.itb.walker.power_state.pwrStateResidencyTicks::UNDEFINED 2251773677584                       # Cumulative time (in ticks) in various power states (Tick)
system.cpu.power_state.pwrStateResidencyTicks::ON 2251773677584                       # Cumulative time (in ticks) in various power states (Tick)
system.cpu.thread_0.numInsts                        0                       # Number of Instructions committed (Count)
system.cpu.thread_0.numOps                          0                       # Number of Ops committed (Count)
system.cpu.thread_0.numMemRefs                      0                       # Number of Memory References (Count)
system.cpu.workload.numSyscalls                   159                       # Number of system calls (Count)
system.mem_ctrl.avgPriority_writebacks::samples    506371.00                       # Average QoS priority value for accepted requests (Count)
system.mem_ctrl.avgPriority_cpu.inst::samples     20093.00                       # Average QoS priority value for accepted requests (Count)
system.mem_ctrl.avgPriority_cpu.data::samples    233066.00                       # Average QoS priority value for accepted requests (Count)
system.mem_ctrl.avgPriority_cpu.l1d.prefetcher::samples    502515.00                       # Average QoS priority value for accepted requests (Count)
system.mem_ctrl.avgPriority_cpu.l1i.prefetcher::samples     34854.00                       # Average QoS priority value for accepted requests (Count)
system.mem_ctrl.priorityMinLatency       0.000000018750                       # per QoS priority minimum request to response latency (Second)
system.mem_ctrl.priorityMaxLatency       0.041647800030                       # per QoS priority maximum request to response latency (Second)
system.mem_ctrl.numReadWriteTurnArounds         28092                       # Number of turnarounds from READ to WRITE (Count)
system.mem_ctrl.numWriteReadTurnArounds         28092                       # Number of turnarounds from WRITE to READ (Count)
system.mem_ctrl.numStayReadState              2684271                       # Number of times bus staying in READ state (Count)
system.mem_ctrl.numStayWriteState              479209                       # Number of times bus staying in WRITE state (Count)
system.mem_ctrl.readReqs                       845117                       # Number of read requests accepted (Count)
system.mem_ctrl.writeReqs                      528815                       # Number of write requests accepted (Count)
system.mem_ctrl.readBursts                     845117                       # Number of controller read bursts, including those serviced by the write queue (Count)
system.mem_ctrl.writeBursts                    528815                       # Number of controller write bursts, including those merged in the write queue (Count)
system.mem_ctrl.servicedByWrQ                   54589                       # Number of controller read bursts serviced by the write queue (Count)
system.mem_ctrl.mergedWrBursts                  22444                       # Number of controller write bursts merged with an existing one (Count)
system.mem_ctrl.neitherReadNorWriteReqs             0                       # Number of requests that are neither read nor write (Count)
system.mem_ctrl.avgRdQLen                        1.12                       # Average read queue length when enqueuing ((Count/Tick))
system.mem_ctrl.avgWrQLen                       24.36                       # Average write queue length when enqueuing ((Count/Tick))
system.mem_ctrl.numRdRetry                          0                       # Number of times read queue was full causing retry (Count)
system.mem_ctrl.numWrRetry                          0                       # Number of times write queue was full causing retry (Count)
system.mem_ctrl.readPktSize::0                      0                       # Read request sizes (log2) (Count)
system.mem_ctrl.readPktSize::1                      0                       # Read request sizes (log2) (Count)
system.mem_ctrl.readPktSize::2                      0                       # Read request sizes (log2) (Count)
system.mem_ctrl.readPktSize::3                      0                       # Read request sizes (log2) (Count)
system.mem_ctrl.readPktSize::4                      0                       # Read request sizes (log2) (Count)
system.mem_ctrl.readPktSize::5                      0                       # Read request sizes (log2) (Count)
system.mem_ctrl.readPktSize::6                 845117                       # Read request sizes (log2) (Count)
system.mem_ctrl.writePktSize::0                     0                       # Write request sizes (log2) (Count)
system.mem_ctrl.writePktSize::1                     0                       # Write request sizes (log2) (Count)
system.mem_ctrl.writePktSize::2                     0                       # Write request sizes (log2) (Count)
system.mem_ctrl.writePktSize::3                     0                       # Write request sizes (log2) (Count)
system.mem_ctrl.writePktSize::4                     0                       # Write request sizes (log2) (Count)
system.mem_ctrl.writePktSize::5                     0                       # Write request sizes (log2) (Count)
system.mem_ctrl.writePktSize::6                528815                       # Write request sizes (log2) (Count)
system.mem_ctrl.rdQLenPdf::0                   646767                       # What read queue length does an incoming req see (Count)
system.mem_ctrl.rdQLenPdf::1                    97343                       # What read queue length does an incoming req see (Count)
system.mem_ctrl.rdQLenPdf::2                    46154                       # What read queue length does an incoming req see (Count)
system.mem_ctrl.rdQLenPdf::3                      220                       # What read queue length does an incoming req see (Count)
system.mem_ctrl.rdQLenPdf::4                       40                       # What read queue length does an incoming req see (Count)
system.mem_ctrl.rdQLenPdf::5                        4                       # What read queue length does an incoming req see (Count)
system.mem_ctrl.rdQLenPdf::6                        0                       # What read queue length does an incoming req see (Count)
system.mem_ctrl.rdQLenPdf::7                        0                       # What read queue length does an incoming req see (Count)
system.mem_ctrl.rdQLenPdf::8                        0                       # What read queue length does an incoming req see (Count)
system.mem_ctrl.rdQLenPdf::9                        0                       # What read queue length does an incoming req see (Count)
system.mem_ctrl.rdQLenPdf::10                       0                       # What read queue length does an incoming req see (Count)
system.mem_ctrl.rdQLenPdf::11                       0                       # What read queue length does an incoming req see (Count)
system.mem_ctrl.rdQLenPdf::12                       0                       # What read queue length does an incoming req see (Count)
system.mem_ctrl.rdQLenPdf::13                       0                       # What read queue length does an incoming req see (Count)
system.mem_ctrl.rdQLenPdf::14                       0                       # What read queue length does an incoming req see (Count)
system.mem_ctrl.rdQLenPdf::15                       0                       # What read queue length does an incoming req see (Count)
system.mem_ctrl.rdQLenPdf::16                       0                       # What read queue length does an incoming req see (Count)
system.mem_ctrl.rdQLenPdf::17                       0                       # What read queue length does an incoming req see (Count)
system.mem_ctrl.rdQLenPdf::18                       0                       # What read queue length does an incoming req see (Count)
system.mem_ctrl.rdQLenPdf::19                       0                       # What read queue length does an incoming req see (Count)
system.mem_ctrl.rdQLenPdf::20                       0                       # What read queue length does an incoming req see (Count)
system.mem_ctrl.rdQLenPdf::21                       0                       # What read queue length does an incoming req see (Count)
system.mem_ctrl.rdQLenPdf::22                       0                       # What read queue length does an incoming req see (Count)
system.mem_ctrl.rdQLenPdf::23                       0                       # What read queue length does an incoming req see (Count)
system.mem_ctrl.rdQLenPdf::24                       0                       # What read queue length does an incoming req see (Count)
system.mem_ctrl.rdQLenPdf::25                       0                       # What read queue length does an incoming req see (Count)
system.mem_ctrl.rdQLenPdf::26                       0                       # What read queue length does an incoming req see (Count)
system.mem_ctrl.rdQLenPdf::27                       0                       # What read queue length does an incoming req see (Count)
system.mem_ctrl.rdQLenPdf::28                       0                       # What read queue length does an incoming req see (Count)
system.mem_ctrl.rdQLenPdf::29                       0                       # What read queue length does an incoming req see (Count)
system.mem_ctrl.rdQLenPdf::30                       0                       # What read queue length does an incoming req see (Count)
system.mem_ctrl.rdQLenPdf::31                       0                       # What read queue length does an incoming req see (Count)
system.mem_ctrl.wrQLenPdf::0                        1                       # What write queue length does an incoming req see (Count)
system.mem_ctrl.wrQLenPdf::1                        1                       # What write queue length does an incoming req see (Count)
system.mem_ctrl.wrQLenPdf::2                        1                       # What write queue length does an incoming req see (Count)
system.mem_ctrl.wrQLenPdf::3                        1                       # What write queue length does an incoming req see (Count)
system.mem_ctrl.wrQLenPdf::4                        1                       # What write queue length does an incoming req see (Count)
system.mem_ctrl.wrQLenPdf::5                        1                       # What write queue length does an incoming req see (Count)
system.mem_ctrl.wrQLenPdf::6                        1                       # What write queue length does an incoming req see (Count)
system.mem_ctrl.wrQLenPdf::7                        1                       # What write queue length does an incoming req see (Count)
system.mem_ctrl.wrQLenPdf::8                        1                       # What write queue length does an incoming req see (Count)
system.mem_ctrl.wrQLenPdf::9                        1                       # What write queue length does an incoming req see (Count)
system.mem_ctrl.wrQLenPdf::10                       1                       # What write queue length does an incoming req see (Count)
system.mem_ctrl.wrQLenPdf::11                       1                       # What write queue length does an incoming req see (Count)
system.mem_ctrl.wrQLenPdf::12                       1                       # What write queue length does an incoming req see (Count)
system.mem_ctrl.wrQLenPdf::13                       1                       # What write queue length does an incoming req see (Count)
system.mem_ctrl.wrQLenPdf::14                       1                       # What write queue length does an incoming req see (Count)
system.mem_ctrl.wrQLenPdf::15                   27908                       # What write queue length does an incoming req see (Count)
system.mem_ctrl.wrQLenPdf::16                   28632                       # What write queue length does an incoming req see (Count)
system.mem_ctrl.wrQLenPdf::17                   28216                       # What write queue length does an incoming req see (Count)
system.mem_ctrl.wrQLenPdf::18                   28103                       # What write queue length does an incoming req see (Count)
system.mem_ctrl.wrQLenPdf::19                   28122                       # What write queue length does an incoming req see (Count)
system.mem_ctrl.wrQLenPdf::20                   28107                       # What write queue length does an incoming req see (Count)
system.mem_ctrl.wrQLenPdf::21                   28111                       # What write queue length does an incoming req see (Count)
system.mem_ctrl.wrQLenPdf::22                   28115                       # What write queue length does an incoming req see (Count)
system.mem_ctrl.wrQLenPdf::23                   28097                       # What write queue length does an incoming req see (Count)
system.mem_ctrl.wrQLenPdf::24                   28095                       # What write queue length does an incoming req see (Count)
system.mem_ctrl.wrQLenPdf::25                   28106                       # What write queue length does an incoming req see (Count)
system.mem_ctrl.wrQLenPdf::26                   28096                       # What write queue length does an incoming req see (Count)
system.mem_ctrl.wrQLenPdf::27                   28094                       # What write queue length does an incoming req see (Count)
system.mem_ctrl.wrQLenPdf::28                   28093                       # What write queue length does an incoming req see (Count)
system.mem_ctrl.wrQLenPdf::29                   28095                       # What write queue length does an incoming req see (Count)
system.mem_ctrl.wrQLenPdf::30                   28092                       # What write queue length does an incoming req see (Count)
system.mem_ctrl.wrQLenPdf::31                   28093                       # What write queue length does an incoming req see (Count)
system.mem_ctrl.wrQLenPdf::32                   28092                       # What write queue length does an incoming req see (Count)
system.mem_ctrl.wrQLenPdf::33                      59                       # What write queue length does an incoming req see (Count)
system.mem_ctrl.wrQLenPdf::34                      29                       # What write queue length does an incoming req see (Count)
system.mem_ctrl.wrQLenPdf::35                       1                       # What write queue length does an incoming req see (Count)
system.mem_ctrl.wrQLenPdf::36                       0                       # What write queue length does an incoming req see (Count)
system.mem_ctrl.wrQLenPdf::37                       0                       # What write queue length does an incoming req see (Count)
system.mem_ctrl.wrQLenPdf::38                       0                       # What write queue length does an incoming req see (Count)
system.mem_ctrl.wrQLenPdf::39                       0                       # What write queue length does an incoming req see (Count)
system.mem_ctrl.wrQLenPdf::40                       0                       # What write queue length does an incoming req see (Count)
system.mem_ctrl.wrQLenPdf::41                       0                       # What write queue length does an incoming req see (Count)
system.mem_ctrl.wrQLenPdf::42                       0                       # What write queue length does an incoming req see (Count)
system.mem_ctrl.wrQLenPdf::43                       0                       # What write queue length does an incoming req see (Count)
system.mem_ctrl.wrQLenPdf::44                       0                       # What write queue length does an incoming req see (Count)
system.mem_ctrl.wrQLenPdf::45                       0                       # What write queue length does an incoming req see (Count)
system.mem_ctrl.wrQLenPdf::46                       0                       # What write queue length does an incoming req see (Count)
system.mem_ctrl.wrQLenPdf::47                       0                       # What write queue length does an incoming req see (Count)
system.mem_ctrl.wrQLenPdf::48                       0                       # What write queue length does an incoming req see (Count)
system.mem_ctrl.wrQLenPdf::49                       0                       # What write queue length does an incoming req see (Count)
system.mem_ctrl.wrQLenPdf::50                       0                       # What write queue length does an incoming req see (Count)
system.mem_ctrl.wrQLenPdf::51                       0                       # What write queue length does an incoming req see (Count)
system.mem_ctrl.wrQLenPdf::52                       0                       # What write queue length does an incoming req see (Count)
system.mem_ctrl.wrQLenPdf::53                       0                       # What write queue length does an incoming req see (Count)
system.mem_ctrl.wrQLenPdf::54                       0                       # What write queue length does an incoming req see (Count)
system.mem_ctrl.wrQLenPdf::55                       0                       # What write queue length does an incoming req see (Count)
system.mem_ctrl.wrQLenPdf::56                       0                       # What write queue length does an incoming req see (Count)
system.mem_ctrl.wrQLenPdf::57                       0                       # What write queue length does an incoming req see (Count)
system.mem_ctrl.wrQLenPdf::58                       0                       # What write queue length does an incoming req see (Count)
system.mem_ctrl.wrQLenPdf::59                       0                       # What write queue length does an incoming req see (Count)
system.mem_ctrl.wrQLenPdf::60                       0                       # What write queue length does an incoming req see (Count)
system.mem_ctrl.wrQLenPdf::61                       0                       # What write queue length does an incoming req see (Count)
system.mem_ctrl.wrQLenPdf::62                       0                       # What write queue length does an incoming req see (Count)
system.mem_ctrl.wrQLenPdf::63                       0                       # What write queue length does an incoming req see (Count)
system.mem_ctrl.rdPerTurnAround::samples        28092                       # Reads before turning the bus around for writes (Count)
system.mem_ctrl.rdPerTurnAround::mean       28.139755                       # Reads before turning the bus around for writes (Count)
system.mem_ctrl.rdPerTurnAround::gmean      20.401087                       # Reads before turning the bus around for writes (Count)
system.mem_ctrl.rdPerTurnAround::stdev     111.283365                       # Reads before turning the bus around for writes (Count)
system.mem_ctrl.rdPerTurnAround::0-255          27928     99.42%     99.42% # Reads before turning the bus around for writes (Count)
system.mem_ctrl.rdPerTurnAround::256-511           38      0.14%     99.55% # Reads before turning the bus around for writes (Count)
system.mem_ctrl.rdPerTurnAround::512-767           33      0.12%     99.67% # Reads before turning the bus around for writes (Count)
system.mem_ctrl.rdPerTurnAround::768-1023           30      0.11%     99.78% # Reads before turning the bus around for writes (Count)
system.mem_ctrl.rdPerTurnAround::1024-1279           15      0.05%     99.83% # Reads before turning the bus around for writes (Count)
system.mem_ctrl.rdPerTurnAround::1280-1535           11      0.04%     99.87% # Reads before turning the bus around for writes (Count)
system.mem_ctrl.rdPerTurnAround::1536-1791            9      0.03%     99.90% # Reads before turning the bus around for writes (Count)
system.mem_ctrl.rdPerTurnAround::1792-2047            8      0.03%     99.93% # Reads before turning the bus around for writes (Count)
system.mem_ctrl.rdPerTurnAround::2048-2303            4      0.01%     99.94% # Reads before turning the bus around for writes (Count)
system.mem_ctrl.rdPerTurnAround::2304-2559            3      0.01%     99.95% # Reads before turning the bus around for writes (Count)
system.mem_ctrl.rdPerTurnAround::2560-2815            4      0.01%     99.97% # Reads before turning the bus around for writes (Count)
system.mem_ctrl.rdPerTurnAround::2816-3071            2      0.01%     99.98% # Reads before turning the bus around for writes (Count)
system.mem_ctrl.rdPerTurnAround::3328-3583            2      0.01%     99.98% # Reads before turning the bus around for writes (Count)
system.mem_ctrl.rdPerTurnAround::3584-3839            1      0.00%     99.99% # Reads before turning the bus around for writes (Count)
system.mem_ctrl.rdPerTurnAround::3840-4095            2      0.01%     99.99% # Reads before turning the bus around for writes (Count)
system.mem_ctrl.rdPerTurnAround::4608-4863            1      0.00%    100.00% # Reads before turning the bus around for writes (Count)
system.mem_ctrl.rdPerTurnAround::6144-6399            1      0.00%    100.00% # Reads before turning the bus around for writes (Count)
system.mem_ctrl.rdPerTurnAround::total          28092                       # Reads before turning the bus around for writes (Count)
[...]
system.mem_ctrl.dram.bwInstRead::total       48183744                       # Instruction read bandwidth from this memory ((Byte/Second))
system.mem_ctrl.dram.bwWrite::writebacks     13058054                       # Write bandwidth from this memory ((Byte/Second))
system.mem_ctrl.dram.bwWrite::total          13058054                       # Write bandwidth from this memory ((Byte/Second))
system.mem_ctrl.dram.bwTotal::writebacks     13058054                       # Total bandwidth to/from this memory ((Byte/Second))
system.mem_ctrl.dram.bwTotal::cpu.inst       48183744                       # Total bandwidth to/from this memory ((Byte/Second))
system.mem_ctrl.dram.bwTotal::cpu.data       23547866                       # Total bandwidth to/from this memory ((Byte/Second))
system.mem_ctrl.dram.bwTotal::cpu.l1d.prefetcher     34332351                       # Total bandwidth to/from this memory ((Byte/Second))
system.mem_ctrl.dram.bwTotal::cpu.l1i.prefetcher    141854052                       # Total bandwidth to/from this memory ((Byte/Second))
system.mem_ctrl.dram.bwTotal::total         260976066                       # Total bandwidth to/from this memory ((Byte/Second))
system.mem_ctrl.dram.readBursts               1627767                       # Number of DRAM read bursts (Count)
system.mem_ctrl.dram.writeBursts                22715                       # Number of DRAM write bursts (Count)
system.mem_ctrl.dram.perBankRdBursts::0         88946                       # Per bank write bursts (Count)
system.mem_ctrl.dram.perBankRdBursts::1         81285                       # Per bank write bursts (Count)
system.mem_ctrl.dram.perBankRdBursts::2          7196                       # Per bank write bursts (Count)
system.mem_ctrl.dram.perBankRdBursts::3         11392                       # Per bank write bursts (Count)
system.mem_ctrl.dram.perBankRdBursts::4        133718                       # Per bank write bursts (Count)
system.mem_ctrl.dram.perBankRdBursts::5        434077                       # Per bank write bursts (Count)
system.mem_ctrl.dram.perBankRdBursts::6         10788                       # Per bank write bursts (Count)
system.mem_ctrl.dram.perBankRdBursts::7        204861                       # Per bank write bursts (Count)
system.mem_ctrl.dram.perBankRdBursts::8        124429                       # Per bank write bursts (Count)
system.mem_ctrl.dram.perBankRdBursts::9          8159                       # Per bank write bursts (Count)
system.mem_ctrl.dram.perBankRdBursts::10         8728                       # Per bank write bursts (Count)
system.mem_ctrl.dram.perBankRdBursts::11         9952                       # Per bank write bursts (Count)
system.mem_ctrl.dram.perBankRdBursts::12        91361                       # Per bank write bursts (Count)
system.mem_ctrl.dram.perBankRdBursts::13       121373                       # Per bank write bursts (Count)
system.mem_ctrl.dram.perBankRdBursts::14       273884                       # Per bank write bursts (Count)
system.mem_ctrl.dram.perBankRdBursts::15        17618                       # Per bank write bursts (Count)
system.mem_ctrl.dram.perBankWrBursts::0          2345                       # Per bank write bursts (Count)
system.mem_ctrl.dram.perBankWrBursts::1          2161                       # Per bank write bursts (Count)
system.mem_ctrl.dram.perBankWrBursts::2          1323                       # Per bank write bursts (Count)
system.mem_ctrl.dram.perBankWrBursts::3          1370                       # Per bank write bursts (Count)
system.mem_ctrl.dram.perBankWrBursts::4          1557                       # Per bank write bursts (Count)
system.mem_ctrl.dram.perBankWrBursts::5          1519                       # Per bank write bursts (Count)
system.mem_ctrl.dram.perBankWrBursts::6          1501                       # Per bank write bursts (Count)
system.mem_ctrl.dram.perBankWrBursts::7          1493                       # Per bank write bursts (Count)
system.mem_ctrl.dram.perBankWrBursts::8          1523                       # Per bank write bursts (Count)
system.mem_ctrl.dram.perBankWrBursts::9          1308                       # Per bank write bursts (Count)
system.mem_ctrl.dram.perBankWrBursts::10         1315                       # Per bank write bursts (Count)
system.mem_ctrl.dram.perBankWrBursts::11         1173                       # Per bank write bursts (Count)
system.mem_ctrl.dram.perBankWrBursts::12         1110                       # Per bank write bursts (Count)
system.mem_ctrl.dram.perBankWrBursts::13          893                       # Per bank write bursts (Count)
system.mem_ctrl.dram.perBankWrBursts::14          847                       # Per bank write bursts (Count)
system.mem_ctrl.dram.perBankWrBursts::15         1277                       # Per bank write bursts (Count)
system.mem_ctrl.dram.totQLat              16210437327                       # Total ticks spent queuing (Tick)
system.mem_ctrl.dram.totBusLat             8138835000                       # Total ticks spent in databus transfers (Tick)
system.mem_ctrl.dram.totMemAccLat         46731068577                       # Total ticks spent from burst creation until serviced by the DRAM (Tick)
system.mem_ctrl.dram.avgQLat                  9958.70                       # Average queueing delay per DRAM burst ((Tick/Count))
system.mem_ctrl.dram.avgBusLat                5000.00                       # Average bus latency per DRAM burst ((Tick/Count))
system.mem_ctrl.dram.avgMemAccLat            28708.70                       # Average memory access latency per DRAM burst ((Tick/Count))
system.mem_ctrl.dram.readRowHits              1284611                       # Number of row buffer hits during reads (Count)
system.mem_ctrl.dram.writeRowHits               20633                       # Number of row buffer hits during writes (Count)
system.mem_ctrl.dram.readRowHitRate             78.92                       # Row buffer hit rate for reads (Ratio)
system.mem_ctrl.dram.writeRowHitRate            90.83                       # Row buffer hit rate for writes (Ratio)
system.mem_ctrl.dram.bytesPerActivate::samples       345239                       # Bytes accessed per row activation (Byte)
system.mem_ctrl.dram.bytesPerActivate::mean   305.964413                       # Bytes accessed per row activation (Byte)
system.mem_ctrl.dram.bytesPerActivate::gmean   247.821944                       # Bytes accessed per row activation (Byte)
system.mem_ctrl.dram.bytesPerActivate::stdev   206.229430                       # Bytes accessed per row activation (Byte)
system.mem_ctrl.dram.bytesPerActivate::0-127        27470      7.96%      7.96% # Bytes accessed per row activation (Byte)
system.mem_ctrl.dram.bytesPerActivate::128-255       161851     46.88%     54.84% # Bytes accessed per row activation (Byte)
system.mem_ctrl.dram.bytesPerActivate::256-383        35416     10.26%     65.10% # Bytes accessed per row activation (Byte)
system.mem_ctrl.dram.bytesPerActivate::384-511        77845     22.55%     87.64% # Bytes accessed per row activation (Byte)
system.mem_ctrl.dram.bytesPerActivate::512-639        11127      3.22%     90.87% # Bytes accessed per row activation (Byte)
system.mem_ctrl.dram.bytesPerActivate::640-767         6903      2.00%     92.87% # Bytes accessed per row activation (Byte)
system.mem_ctrl.dram.bytesPerActivate::768-895        15514      4.49%     97.36% # Bytes accessed per row activation (Byte)
system.mem_ctrl.dram.bytesPerActivate::896-1023         3956      1.15%     98.51% # Bytes accessed per row activation (Byte)
system.mem_ctrl.dram.bytesPerActivate::1024-1151         5157      1.49%    100.00% # Bytes accessed per row activation (Byte)
system.mem_ctrl.dram.bytesPerActivate::total       345239                       # Bytes accessed per row activation (Byte)
system.mem_ctrl.dram.dramBytesRead          104177088                       # Total bytes read (Byte)
system.mem_ctrl.dram.dramBytesWritten         1453760                       # Total bytes written (Byte)
system.mem_ctrl.dram.avgRdBW               237.690457                       # Average DRAM read bandwidth in MiBytes/s ((Byte/Second))
system.mem_ctrl.dram.avgWrBW                 3.316899                       # Average DRAM write bandwidth in MiBytes/s ((Byte/Second))
system.mem_ctrl.dram.peakBW                  12800.00                       # Theoretical peak bandwidth in MiByte/s ((Byte/Second))
system.mem_ctrl.dram.busUtil                     1.88                       # Data bus utilization in percentage (Ratio)
system.mem_ctrl.dram.busUtilRead                 1.86                       # Data bus utilization in percentage for reads (Ratio)
system.mem_ctrl.dram.busUtilWrite                0.03                       # Data bus utilization in percentage for writes (Ratio)
system.mem_ctrl.dram.pageHitRate                79.08                       # Row buffer hit rate, read and write combined (Ratio)
system.mem_ctrl.dram.power_state.pwrStateResidencyTicks::UNDEFINED 438288895837                       # Cumulative time (in ticks) in various power states (Tick)
system.mem_ctrl.dram.rank0.actEnergy       1310075760                       # Energy for activate commands per rank (pJ) (Joule)
system.mem_ctrl.dram.rank0.preEnergy        696325575                       # Energy for precharge commands per rank (pJ) (Joule)
system.mem_ctrl.dram.rank0.readEnergy      6941957820                       # Energy for read commands per rank (pJ) (Joule)
system.mem_ctrl.dram.rank0.writeEnergy       69264180                       # Energy for write commands per rank (pJ) (Joule)
system.mem_ctrl.dram.rank0.refreshEnergy 34598700240.000008                       # Energy for refresh commands per rank (pJ) (Joule)
system.mem_ctrl.dram.rank0.actBackEnergy 169807154730                       # Energy for active background per rank (pJ) (Joule)
system.mem_ctrl.dram.rank0.preBackEnergy  25307437440                       # Energy for precharge background per rank (pJ) (Joule)
system.mem_ctrl.dram.rank0.actPowerDownEnergy            0                       # Energy for active power-down per rank (pJ) (Joule)
system.mem_ctrl.dram.rank0.prePowerDownEnergy            0                       # Energy for precharge power-down per rank (pJ) (Joule)
system.mem_ctrl.dram.rank0.selfRefreshEnergy            0                       # Energy for self refresh per rank (pJ) (Joule)
system.mem_ctrl.dram.rank0.totalEnergy   238730915745                       # Total energy per rank (pJ) (Joule)
system.mem_ctrl.dram.rank0.averagePower    544.688487                       # Core power per rank (mW) (Watt)
system.mem_ctrl.dram.rank0.totalIdleTime            0                       # Total Idle time Per DRAM Rank (Tick)
system.mem_ctrl.dram.rank0.pwrStateTime::IDLE  64310194770                       # Time in different power states (Tick)
system.mem_ctrl.dram.rank0.pwrStateTime::REF  14635660000                       # Time in different power states (Tick)
system.mem_ctrl.dram.rank0.pwrStateTime::SREF            0                       # Time in different power states (Tick)
system.mem_ctrl.dram.rank0.pwrStateTime::PRE_PDN            0                       # Time in different power states (Tick)
system.mem_ctrl.dram.rank0.pwrStateTime::ACT 359343041067                       # Time in different power states (Tick)
system.mem_ctrl.dram.rank0.pwrStateTime::ACT_PDN            0                       # Time in different power states (Tick)
system.mem_ctrl.dram.rank1.actEnergy       1154923560                       # Energy for activate commands per rank (pJ) (Joule)
system.mem_ctrl.dram.rank1.preEnergy        613856430                       # Energy for precharge commands per rank (pJ) (Joule)
system.mem_ctrl.dram.rank1.readEnergy      4680298560                       # Energy for read commands per rank (pJ) (Joule)
system.mem_ctrl.dram.rank1.writeEnergy       49308120                       # Energy for write commands per rank (pJ) (Joule)
system.mem_ctrl.dram.rank1.refreshEnergy 34598700240.000008                       # Energy for refresh commands per rank (pJ) (Joule)
system.mem_ctrl.dram.rank1.actBackEnergy 158789106600                       # Energy for active background per rank (pJ) (Joule)
system.mem_ctrl.dram.rank1.preBackEnergy  34585793760                       # Energy for precharge background per rank (pJ) (Joule)
system.mem_ctrl.dram.rank1.actPowerDownEnergy            0                       # Energy for active power-down per rank (pJ) (Joule)
system.mem_ctrl.dram.rank1.prePowerDownEnergy            0                       # Energy for precharge power-down per rank (pJ) (Joule)
system.mem_ctrl.dram.rank1.selfRefreshEnergy            0                       # Energy for self refresh per rank (pJ) (Joule)
system.mem_ctrl.dram.rank1.totalEnergy   234471987270                       # Total energy per rank (pJ) (Joule)
system.mem_ctrl.dram.rank1.averagePower    534.971316                       # Core power per rank (mW) (Watt)
system.mem_ctrl.dram.rank1.totalIdleTime            0                       # Total Idle time Per DRAM Rank (Tick)
system.mem_ctrl.dram.rank1.pwrStateTime::IDLE  88241925928                       # Time in different power states (Tick)
system.mem_ctrl.dram.rank1.pwrStateTime::REF  14635660000                       # Time in different power states (Tick)
system.mem_ctrl.dram.rank1.pwrStateTime::SREF            0                       # Time in different power states (Tick)
system.mem_ctrl.dram.rank1.pwrStateTime::PRE_PDN            0                       # Time in different power states (Tick)
system.mem_ctrl.dram.rank1.pwrStateTime::ACT 335411309909                       # Time in different power states (Tick)
system.mem_ctrl.dram.rank1.pwrStateTime::ACT_PDN            0                       # Time in different power states (Tick)
system.mem_ctrl.power_state.pwrStateResidencyTicks::UNDEFINED 438288895837                       # Cumulative time (in ticks) in various power states (Tick)
system.membus.transDist::ReadResp             1642165                       # Transaction distribution (Count)
system.membus.transDist::WritebackDirty         89425                       # Transaction distribution (Count)
system.membus.transDist::CleanEvict           1608384                       # Transaction distribution (Count)
system.membus.transDist::ReadExReq              55644                       # Transaction distribution (Count)
system.membus.transDist::ReadExResp             55644                       # Transaction distribution (Count)
system.membus.transDist::ReadSharedReq        1642164                       # Transaction distribution (Count)
system.membus.pktCount_system.cpu.l1d.mem_side_port::system.mem_ctrl.port      1189139                       # Packet count per connected requestor and responder (Count)
system.membus.pktCount_system.cpu.l1d.mem_side_port::total      1189139                       # Packet count per connected requestor and responder (Count)
system.membus.pktCount_system.cpu.l1i.mem_side_port::system.mem_ctrl.port      3904287                       # Packet count per connected requestor and responder (Count)
system.membus.pktCount_system.cpu.l1i.mem_side_port::total      3904287                       # Packet count per connected requestor and responder (Count)
system.membus.pktCount::total                 5093426                       # Packet count per connected requestor and responder (Count)
system.membus.pktSize_system.cpu.l1d.mem_side_port::system.mem_ctrl.port     31091520                       # Cumulative packet size per connected requestor and responder (Byte)
system.membus.pktSize_system.cpu.l1d.mem_side_port::total     31091520                       # Cumulative packet size per connected requestor and responder (Byte)
system.membus.pktSize_system.cpu.l1i.mem_side_port::system.mem_ctrl.port     83291456                       # Cumulative packet size per connected requestor and responder (Byte)
system.membus.pktSize_system.cpu.l1i.mem_side_port::total     83291456                       # Cumulative packet size per connected requestor and responder (Byte)
system.membus.pktSize::total                114382976                       # Cumulative packet size per connected requestor and responder (Byte)
system.membus.snoops                                0                       # Total snoops (Count)
system.membus.snoopTraffic                          0                       # Total snoop traffic (Byte)
system.membus.snoopFanout::samples            1697808                       # Request fanout histogram (Count)
system.membus.snoopFanout::mean                     0                       # Request fanout histogram (Count)
system.membus.snoopFanout::stdev                    0                       # Request fanout histogram (Count)
system.membus.snoopFanout::underflows               0      0.00%      0.00% # Request fanout histogram (Count)
system.membus.snoopFanout::0                  1697808    100.00%    100.00% # Request fanout histogram (Count)
system.membus.snoopFanout::1                        0      0.00%    100.00% # Request fanout histogram (Count)
system.membus.snoopFanout::2                        0      0.00%    100.00% # Request fanout histogram (Count)
system.membus.snoopFanout::overflows                0      0.00%    100.00% # Request fanout histogram (Count)
system.membus.snoopFanout::min_value                0                       # Request fanout histogram (Count)
system.membus.snoopFanout::max_value                0                       # Request fanout histogram (Count)
system.membus.snoopFanout::total              1697808                       # Request fanout histogram (Count)
system.membus.power_state.pwrStateResidencyTicks::UNDEFINED 438288895837                       # Cumulative time (in ticks) in various power states (Tick)
system.membus.reqLayer2.occupancy         53446221869                       # Layer occupancy (ticks) (Tick)
system.membus.reqLayer2.utilization               0.1                       # Layer utilization (Ratio)
system.membus.respLayer2.occupancy        26782176370                       # Layer occupancy (ticks) (Tick)
system.membus.respLayer2.utilization              0.1                       # Layer utilization (Ratio)
system.membus.respLayer3.occupancy        87525308085                       # Layer occupancy (ticks) (Tick)
system.membus.respLayer3.utilization              0.2                       # Layer utilization (Ratio)
system.membus.snoop_filter.totRequests        3395617                       # Total number of requests made to the snoop filter. (Count)
system.membus.snoop_filter.hitSingleRequests      1697809                       # Number of requests hitting in the snoop filter with a single holder of the requested data. (Count)
system.membus.snoop_filter.hitMultiRequests            0                       # Number of requests hitting in the snoop filter with multiple (>1) holders of the requested data. (Count)
system.membus.snoop_filter.totSnoops                0                       # Total number of snoops made to the snoop filter. (Count)
system.membus.snoop_filter.hitSingleSnoops            0                       # Number of snoops hitting in the snoop filter with a single holder of the requested data. (Count)
system.membus.snoop_filter.hitMultiSnoops            0                       # Number of snoops hitting in the snoop filter with multiple (>1) holders of the requested data. (Count)
system.workload.inst.arm                            0                       # number of arm instructions executed (Count)
system.workload.inst.quiesce                        0                       # number of quiesce instructions executed (Count)

---------- End Simulation Statistics   ----------
