
---------- Begin Simulation Statistics ----------
simSeconds                                   1.083051                       # Number of seconds simulated (Second)
simTicks                                 1083051056380                       # Number of ticks simulated (Tick)
finalTick                                1083051056380                       # Number of ticks from beginning of simulation (restored from checkpoints and never reset) (Tick)
simFreq                                  1000000000000                       # The number of ticks per simulated second ((Tick/Second))
hostSeconds                                    528.87                       # Real time elapsed on the host (Second)
hostTickRate                               2047855554                       # The number of ticks simulated per host second (ticks/s) ((Tick/Second))
hostMemory                                    8673552                       # Number of bytes of host memory used (Byte)
simInsts                                    104722356                       # Number of instructions simulated (Count)
simOps                                      188412333                       # Number of ops (including micro ops) simulated (Count)
hostInstRate                                   198011                       # Simulator instruction rate (inst/s) ((Count/Second))
hostOpRate                                     356254                       # Simulator op (including micro ops) rate (op/s) ((Count/Second))
system.clk_domain.clock                         13333                       # Clock period in ticks (Tick)
system.clk_domain.voltage_domain.voltage            1                       # Voltage in Volts (Volt)
system.cpu.numCycles                         81230861                       # Number of cpu cycles simulated (Cycle)
system.cpu.cpi                               0.775678                       # CPI: cycles per instruction (core level) ((Cycle/Count))
system.cpu.ipc                               1.289194                       # IPC: instructions per cycle (core level) ((Count/Cycle))
system.cpu.numWorkItemsStarted                      0                       # Number of work items this cpu started (Count)
system.cpu.numWorkItemsCompleted                    0                       # Number of work items this cpu completed (Count)
system.cpu.instsAdded                       200985669                       # Number of instructions added to the IQ (excludes non-spec) (Count)
system.cpu.nonSpecInstsAdded                     4511                       # Number of non-speculative instructions added to the IQ (Count)
system.cpu.instsIssued                      198028089                       # Number of instructions issued (Count)
system.cpu.squashedInstsIssued                  61261                       # Number of squashed instructions issued (Count)
system.cpu.squashedInstsExamined             12577777                       # Number of squashed instructions iterated over during squash; mainly for profiling (Count)
system.cpu.squashedOperandsExamined          15740937                       # Number of squashed operands that are examined and possibly removed from graph (Count)
system.cpu.squashedNonSpecRemoved                1158                       # Number of squashed non-spec instructions that were removed (Count)
system.cpu.numIssuedDist::samples            80588593                       # Number of insts issued each cycle (Count)
system.cpu.numIssuedDist::mean               2.457272                       # Number of insts issued each cycle (Count)
system.cpu.numIssuedDist::stdev              2.585941                       # Number of insts issued each cycle (Count)
system.cpu.numIssuedDist::underflows                0      0.00%      0.00% # Number of insts issued each cycle (Count)
system.cpu.numIssuedDist::0                  28006826     34.75%     34.75% # Number of insts issued each cycle (Count)
system.cpu.numIssuedDist::1                  11847626     14.70%     49.45% # Number of insts issued each cycle (Count)
system.cpu.numIssuedDist::2                   8476322     10.52%     59.97% # Number of insts issued each cycle (Count)
system.cpu.numIssuedDist::3                   6785155      8.42%     68.39% # Number of insts issued each cycle (Count)
system.cpu.numIssuedDist::4                   5670403      7.04%     75.43% # Number of insts issued each cycle (Count)
system.cpu.numIssuedDist::5                   5480389      6.80%     82.23% # Number of insts issued each cycle (Count)
system.cpu.numIssuedDist::6                   5574814      6.92%     89.15% # Number of insts issued each cycle (Count)
system.cpu.numIssuedDist::7                   4636551      5.75%     94.90% # Number of insts issued each cycle (Count)
system.cpu.numIssuedDist::8                   4110507      5.10%    100.00% # Number of insts issued each cycle (Count)
system.cpu.numIssuedDist::overflows                 0      0.00%    100.00% # Number of insts issued each cycle (Count)
system.cpu.numIssuedDist::min_value                 0                       # Number of insts issued each cycle (Count)
system.cpu.numIssuedDist::max_value                 8                       # Number of insts issued each cycle (Count)
system.cpu.numIssuedDist::total              80588593                       # Number of insts issued each cycle (Count)
system.cpu.statFuBusy::No_OpClass                   0      0.00%      0.00% # attempts to use FU when none available (Count)
system.cpu.statFuBusy::IntAlu                 3743470     91.08%     91.08% # attempts to use FU when none available (Count)
system.cpu.statFuBusy::IntMult                      0      0.00%     91.08% # attempts to use FU when none available (Count)
system.cpu.statFuBusy::IntDiv                       0      0.00%     91.08% # attempts to use FU when none available (Count)
system.cpu.statFuBusy::FloatAdd                     0      0.00%     91.08% # attempts to use FU when none available (Count)
system.cpu.statFuBusy::FloatCmp                     0      0.00%     91.08% # attempts to use FU when none available (Count)
system.cpu.statFuBusy::FloatCvt                     0      0.00%     91.08% # attempts to use FU when none available (Count)
system.cpu.statFuBusy::FloatMult                    0      0.00%     91.08% # attempts to use FU when none available (Count)
system.cpu.statFuBusy::FloatMultAcc                 0      0.00%     91.08% # attempts to use FU when none available (Count)
system.cpu.statFuBusy::FloatDiv                     0      0.00%     91.08% # attempts to use FU when none available (Count)
system.cpu.statFuBusy::FloatMisc                    0      0.00%     91.08% # attempts to use FU when none available (Count)
system.cpu.statFuBusy::FloatSqrt                    0      0.00%     91.08% # attempts to use FU when none available (Count)
system.cpu.statFuBusy::SimdAdd                     12      0.00%     91.08% # attempts to use FU when none available (Count)
system.cpu.statFuBusy::SimdAddAcc                   0      0.00%     91.08% # attempts to use FU when none available (Count)
system.cpu.statFuBusy::SimdAlu                    140      0.00%     91.08% # attempts to use FU when none available (Count)
system.cpu.statFuBusy::SimdCmp                      2      0.00%     91.08% # attempts to use FU when none available (Count)
system.cpu.statFuBusy::SimdCvt                    314      0.01%     91.09% # attempts to use FU when none available (Count)
system.cpu.statFuBusy::SimdMisc                    35      0.00%     91.09% # attempts to use FU when none available (Count)
system.cpu.statFuBusy::SimdMult                     0      0.00%     91.09% # attempts to use FU when none available (Count)
system.cpu.statFuBusy::SimdMultAcc                  0      0.00%     91.09% # attempts to use FU when none available (Count)
system.cpu.statFuBusy::SimdMatMultAcc               0      0.00%     91.09% # attempts to use FU when none available (Count)
system.cpu.statFuBusy::SimdShift                   53      0.00%     91.09% # attempts to use FU when none available (Count)
system.cpu.statFuBusy::SimdShiftAcc                 0      0.00%     91.09% # attempts to use FU when none available (Count)
system.cpu.statFuBusy::SimdDiv                      0      0.00%     91.09% # attempts to use FU when none available (Count)
system.cpu.statFuBusy::SimdSqrt                     0      0.00%     91.09% # attempts to use FU when none available (Count)
system.cpu.statFuBusy::SimdFloatAdd                 0      0.00%     91.09% # attempts to use FU when none available (Count)
system.cpu.statFuBusy::SimdFloatAlu                 0      0.00%     91.09% # attempts to use FU when none available (Count)
system.cpu.statFuBusy::SimdFloatCmp                 0      0.00%     91.09% # attempts to use FU when none available (Count)
system.cpu.statFuBusy::SimdFloatCvt                 0      0.00%     91.09% # attempts to use FU when none available (Count)
system.cpu.statFuBusy::SimdFloatDiv                 0      0.00%     91.09% # attempts to use FU when none available (Count)
system.cpu.statFuBusy::SimdFloatMisc                0      0.00%     91.09% # attempts to use FU when none available (Count)
system.cpu.statFuBusy::SimdFloatMult                0      0.00%     91.09% # attempts to use FU when none available (Count)
system.cpu.statFuBusy::SimdFloatMultAcc             0      0.00%     91.09% # attempts to use FU when none available (Count)
system.cpu.statFuBusy::SimdFloatMatMultAcc            0      0.00%     91.09% # attempts to use FU when none available (Count)
system.cpu.statFuBusy::SimdFloatSqrt                0      0.00%     91.09% # attempts to use FU when none available (Count)
system.cpu.statFuBusy::SimdReduceAdd                0      0.00%     91.09% # attempts to use FU when none available (Count)
system.cpu.statFuBusy::SimdReduceAlu                0      0.00%     91.09% # attempts to use FU when none available (Count)
system.cpu.statFuBusy::SimdReduceCmp                0      0.00%     91.09% # attempts to use FU when none available (Count)
system.cpu.statFuBusy::SimdFloatReduceAdd            0      0.00%     91.09% # attempts to use FU when none available (Count)
system.cpu.statFuBusy::SimdFloatReduceCmp            0      0.00%     91.09% # attempts to use FU when none available (Count)
system.cpu.statFuBusy::SimdAes                      0      0.00%     91.09% # attempts to use FU when none available (Count)
system.cpu.statFuBusy::SimdAesMix                   0      0.00%     91.09% # attempts to use FU when none available (Count)
system.cpu.statFuBusy::SimdSha1Hash                 0      0.00%     91.09% # attempts to use FU when none available (Count)
system.cpu.statFuBusy::SimdSha1Hash2                0      0.00%     91.09% # attempts to use FU when none available (Count)
system.cpu.statFuBusy::SimdSha256Hash               0      0.00%     91.09% # attempts to use FU when none available (Count)
system.cpu.statFuBusy::SimdSha256Hash2              0      0.00%     91.09% # attempts to use FU when none available (Count)
system.cpu.statFuBusy::SimdShaSigma2                0      0.00%     91.09% # attempts to use FU when none available (Count)
system.cpu.statFuBusy::SimdShaSigma3                0      0.00%     91.09% # attempts to use FU when none available (Count)
system.cpu.statFuBusy::SimdPredAlu                  0      0.00%     91.09% # attempts to use FU when none available (Count)
system.cpu.statFuBusy::Matrix                       0      0.00%     91.09% # attempts to use FU when none available (Count)
system.cpu.statFuBusy::MatrixMov                    0      0.00%     91.09% # attempts to use FU when none available (Count)
system.cpu.statFuBusy::MatrixOP                     0      0.00%     91.09% # attempts to use FU when none available (Count)
system.cpu.statFuBusy::MemRead                 304243      7.40%     98.50% # attempts to use FU when none available (Count)
system.cpu.statFuBusy::MemWrite                 32123      0.78%     99.28% # attempts to use FU when none available (Count)
system.cpu.statFuBusy::FloatMemRead              1567      0.04%     99.32% # attempts to use FU when none available (Count)
system.cpu.statFuBusy::FloatMemWrite            28128      0.68%    100.00% # attempts to use FU when none available (Count)
system.cpu.statFuBusy::IprAccess                    0      0.00%    100.00% # attempts to use FU when none available (Count)
system.cpu.statFuBusy::InstPrefetch                 0      0.00%    100.00% # attempts to use FU when none available (Count)
system.cpu.statFuBusy::SimdUnitStrideLoad            0      0.00%    100.00% # attempts to use FU when none available (Count)
system.cpu.statFuBusy::SimdUnitStrideStore            0      0.00%    100.00% # attempts to use FU when none available (Count)
system.cpu.statFuBusy::SimdUnitStrideMaskLoad            0      0.00%    100.00% # attempts to use FU when none available (Count)
system.cpu.statFuBusy::SimdUnitStrideMaskStore            0      0.00%    100.00% # attempts to use FU when none available (Count)
system.cpu.statFuBusy::SimdStridedLoad              0      0.00%    100.00% # attempts to use FU when none available (Count)
system.cpu.statFuBusy::SimdStridedStore             0      0.00%    100.00% # attempts to use FU when none available (Count)
system.cpu.statFuBusy::SimdIndexedLoad              0      0.00%    100.00% # attempts to use FU when none available (Count)
system.cpu.statFuBusy::SimdIndexedStore             0      0.00%    100.00% # attempts to use FU when none available (Count)
system.cpu.statFuBusy::SimdWholeRegisterLoad            0      0.00%    100.00% # attempts to use FU when none available (Count)
system.cpu.statFuBusy::SimdWholeRegisterStore            0      0.00%    100.00% # attempts to use FU when none available (Count)
system.cpu.statFuBusy::SimdUnitStrideFaultOnlyFirstLoad            0      0.00%    100.00% # attempts to use FU when none available (Count)
system.cpu.statFuBusy::SimdUnitStrideSegmentedLoad            0      0.00%    100.00% # attempts to use FU when none available (Count)
system.cpu.statFuBusy::SimdUnitStrideSegmentedStore            0      0.00%    100.00% # attempts to use FU when none available (Count)
system.cpu.statFuBusy::SimdExt                      0      0.00%    100.00% # attempts to use FU when none available (Count)
system.cpu.statFuBusy::SimdFloatExt                 0      0.00%    100.00% # attempts to use FU when none available (Count)
system.cpu.statFuBusy::SimdConfig                   0      0.00%    100.00% # attempts to use FU when none available (Count)
system.cpu.statIssuedInstType_0::No_OpClass      1791649      0.90%      0.90% # Number of instructions issued per FU type, per thread (Count)
system.cpu.statIssuedInstType_0::IntAlu     144754480     73.10%     74.00% # Number of instructions issued per FU type, per thread (Count)
system.cpu.statIssuedInstType_0::IntMult          344      0.00%     74.00% # Number of instructions issued per FU type, per thread (Count)
system.cpu.statIssuedInstType_0::IntDiv       6070335      3.07%     77.07% # Number of instructions issued per FU type, per thread (Count)
system.cpu.statIssuedInstType_0::FloatAdd       614297      0.31%     77.38% # Number of instructions issued per FU type, per thread (Count)
system.cpu.statIssuedInstType_0::FloatCmp            0      0.00%     77.38% # Number of instructions issued per FU type, per thread (Count)
system.cpu.statIssuedInstType_0::FloatCvt         1294      0.00%     77.38% # Number of instructions issued per FU type, per thread (Count)
system.cpu.statIssuedInstType_0::FloatMult            0      0.00%     77.38% # Number of instructions issued per FU type, per thread (Count)
system.cpu.statIssuedInstType_0::FloatMultAcc            0      0.00%     77.38% # Number of instructions issued per FU type, per thread (Count)
system.cpu.statIssuedInstType_0::FloatDiv            0      0.00%     77.38% # Number of instructions issued per FU type, per thread (Count)
system.cpu.statIssuedInstType_0::FloatMisc            0      0.00%     77.38% # Number of instructions issued per FU type, per thread (Count)
system.cpu.statIssuedInstType_0::FloatSqrt            0      0.00%     77.38% # Number of instructions issued per FU type, per thread (Count)
system.cpu.statIssuedInstType_0::SimdAdd         7514      0.00%     77.38% # Number of instructions issued per FU type, per thread (Count)
system.cpu.statIssuedInstType_0::SimdAddAcc            0      0.00%     77.38% # Number of instructions issued per FU type, per thread (Count)
system.cpu.statIssuedInstType_0::SimdAlu       709196      0.36%     77.74% # Number of instructions issued per FU type, per thread (Count)
system.cpu.statIssuedInstType_0::SimdCmp           50      0.00%     77.74% # Number of instructions issued per FU type, per thread (Count)
system.cpu.statIssuedInstType_0::SimdCvt        16596      0.01%     77.75% # Number of instructions issued per FU type, per thread (Count)
system.cpu.statIssuedInstType_0::SimdMisc       772379      0.39%     78.14% # Number of instructions issued per FU type, per thread (Count)
system.cpu.statIssuedInstType_0::SimdMult            0      0.00%     78.14% # Number of instructions issued per FU type, per thread (Count)
system.cpu.statIssuedInstType_0::SimdMultAcc            0      0.00%     78.14% # Number of instructions issued per FU type, per thread (Count)
system.cpu.statIssuedInstType_0::SimdMatMultAcc            0      0.00%     78.14% # Number of instructions issued per FU type, per thread (Count)
system.cpu.statIssuedInstType_0::SimdShift         4252      0.00%     78.14% # Number of instructions issued per FU type, per thread (Count)
system.cpu.statIssuedInstType_0::SimdShiftAcc            0      0.00%     78.14% # Number of instructions issued per FU type, per thread (Count)
system.cpu.statIssuedInstType_0::SimdDiv            0      0.00%     78.14% # Number of instructions issued per FU type, per thread (Count)
system.cpu.statIssuedInstType_0::SimdSqrt            0      0.00%     78.14% # Number of instructions issued per FU type, per thread (Count)
system.cpu.statIssuedInstType_0::SimdFloatAdd          114      0.00%     78.14% # Number of instructions issued per FU type, per thread (Count)
system.cpu.statIssuedInstType_0::SimdFloatAlu            0      0.00%     78.14% # Number of instructions issued per FU type, per thread (Count)
system.cpu.statIssuedInstType_0::SimdFloatCmp            0      0.00%     78.14% # Number of instructions issued per FU type, per thread (Count)
system.cpu.statIssuedInstType_0::SimdFloatCvt          463      0.00%     78.14% # Number of instructions issued per FU type, per thread (Count)
system.cpu.statIssuedInstType_0::SimdFloatDiv           75      0.00%     78.14% # Number of instructions issued per FU type, per thread (Count)
system.cpu.statIssuedInstType_0::SimdFloatMisc            0      0.00%     78.14% # Number of instructions issued per FU type, per thread (Count)
system.cpu.statIssuedInstType_0::SimdFloatMult           40      0.00%     78.14% # Number of instructions issued per FU type, per thread (Count)
system.cpu.statIssuedInstType_0::SimdFloatMultAcc            0      0.00%     78.14% # Number of instructions issued per FU type, per thread (Count)
system.cpu.statIssuedInstType_0::SimdFloatMatMultAcc            0      0.00%     78.14% # Number of instructions issued per FU type, per thread (Count)
system.cpu.statIssuedInstType_0::SimdFloatSqrt            0      0.00%     78.14% # Number of instructions issued per FU type, per thread (Count)
system.cpu.statIssuedInstType_0::SimdReduceAdd            0      0.00%     78.14% # Number of instructions issued per FU type, per thread (Count)
system.cpu.statIssuedInstType_0::SimdReduceAlu            0      0.00%     78.14% # Number of instructions issued per FU type, per thread (Count)
system.cpu.statIssuedInstType_0::SimdReduceCmp            0      0.00%     78.14% # Number of instructions issued per FU type, per thread (Count)
system.cpu.statIssuedInstType_0::SimdFloatReduceAdd            0      0.00%     78.14% # Number of instructions issued per FU type, per thread (Count)
system.cpu.statIssuedInstType_0::SimdFloatReduceCmp            0      0.00%     78.14% # Number of instructions issued per FU type, per thread (Count)
system.cpu.statIssuedInstType_0::SimdAes            0      0.00%     78.14% # Number of instructions issued per FU type, per thread (Count)
system.cpu.statIssuedInstType_0::SimdAesMix            0      0.00%     78.14% # Number of instructions issued per FU type, per thread (Count)
system.cpu.statIssuedInstType_0::SimdSha1Hash            0      0.00%     78.14% # Number of instructions issued per FU type, per thread (Count)
system.cpu.statIssuedInstType_0::SimdSha1Hash2            0      0.00%     78.14% # Number of instructions issued per FU type, per thread (Count)
system.cpu.statIssuedInstType_0::SimdSha256Hash            0      0.00%     78.14% # Number of instructions issued per FU type, per thread (Count)
system.cpu.statIssuedInstType_0::SimdSha256Hash2            0      0.00%     78.14% # Number of instructions issued per FU type, per thread (Count)
system.cpu.statIssuedInstType_0::SimdShaSigma2            0      0.00%     78.14% # Number of instructions issued per FU type, per thread (Count)
system.cpu.statIssuedInstType_0::SimdShaSigma3            0      0.00%     78.14% # Number of instructions issued per FU type, per thread (Count)
system.cpu.statIssuedInstType_0::SimdPredAlu            0      0.00%     78.14% # Number of instructions issued per FU type, per thread (Count)
system.cpu.statIssuedInstType_0::Matrix             0      0.00%     78.14% # Number of instructions issued per FU type, per thread (Count)
system.cpu.statIssuedInstType_0::MatrixMov            0      0.00%     78.14% # Number of instructions issued per FU type, per thread (Count)
system.cpu.statIssuedInstType_0::MatrixOP            0      0.00%     78.14% # Number of instructions issued per FU type, per thread (Count)
system.cpu.statIssuedInstType_0::MemRead     26290239     13.28%     91.42% # Number of instructions issued per FU type, per thread (Count)
system.cpu.statIssuedInstType_0::MemWrite     13435382      6.78%     98.20% # Number of instructions issued per FU type, per thread (Count)
system.cpu.statIssuedInstType_0::FloatMemRead       518017      0.26%     98.46% # Number of instructions issued per FU type, per thread (Count)
system.cpu.statIssuedInstType_0::FloatMemWrite      3041373      1.54%    100.00% # Number of instructions issued per FU type, per thread (Count)
system.cpu.statIssuedInstType_0::IprAccess            0      0.00%    100.00% # Number of instructions issued per FU type, per thread (Count)
system.cpu.statIssuedInstType_0::InstPrefetch            0      0.00%    100.00% # Number of instructions issued per FU type, per thread (Count)
system.cpu.statIssuedInstType_0::SimdUnitStrideLoad            0      0.00%    100.00% # Number of instructions issued per FU type, per thread (Count)
system.cpu.statIssuedInstType_0::SimdUnitStrideStore            0      0.00%    100.00% # Number of instructions issued per FU type, per thread (Count)
system.cpu.statIssuedInstType_0::SimdUnitStrideMaskLoad            0      0.00%    100.00% # Number of instructions issued per FU type, per thread (Count)
system.cpu.statIssuedInstType_0::SimdUnitStrideMaskStore            0      0.00%    100.00% # Number of instructions issued per FU type, per thread (Count)
system.cpu.statIssuedInstType_0::SimdStridedLoad            0      0.00%    100.00% # Number of instructions issued per FU type, per thread (Count)
system.cpu.statIssuedInstType_0::SimdStridedStore            0      0.00%    100.00% # Number of instructions issued per FU type, per thread (Count)
system.cpu.statIssuedInstType_0::SimdIndexedLoad            0      0.00%    100.00% # Number of instructions issued per FU type, per thread (Count)
system.cpu.statIssuedInstType_0::SimdIndexedStore            0      0.00%    100.00% # Number of instructions issued per FU type, per thread (Count)
system.cpu.statIssuedInstType_0::SimdWholeRegisterLoad            0      0.00%    100.00% # Number of instructions issued per FU type, per thread (Count)
system.cpu.statIssuedInstType_0::SimdWholeRegisterStore            0      0.00%    100.00% # Number of instructions issued per FU type, per thread (Count)
system.cpu.statIssuedInstType_0::SimdUnitStrideFaultOnlyFirstLoad            0      0.00%    100.00% # Number of instructions issued per FU type, per thread (Count)
system.cpu.statIssuedInstType_0::SimdUnitStrideSegmentedLoad            0      0.00%    100.00% # Number of instructions issued per FU type, per thread (Count)
system.cpu.statIssuedInstType_0::SimdUnitStrideSegmentedStore            0      0.00%    100.00% # Number of instructions issued per FU type, per thread (Count)
system.cpu.statIssuedInstType_0::SimdExt            0      0.00%    100.00% # Number of instructions issued per FU type, per thread (Count)
system.cpu.statIssuedInstType_0::SimdFloatExt            0      0.00%    100.00% # Number of instructions issued per FU type, per thread (Count)
system.cpu.statIssuedInstType_0::SimdConfig            0      0.00%    100.00% # Number of instructions issued per FU type, per thread (Count)
system.cpu.statIssuedInstType_0::total      198028089                       # Number of instructions issued per FU type, per thread (Count)
system.cpu.issueRate                         2.437843                       # Inst issue rate ((Count/Cycle))
system.cpu.fuBusy                             4110087                       # FU busy when requested (Count)
system.cpu.fuBusyRate                        0.020755                       # FU busy rate (busy events/executed inst) ((Count/Count))
system.cpu.intInstQueueReads                467576887                       # Number of integer instruction queue reads (Count)
system.cpu.intInstQueueWrites               206887220                       # Number of integer instruction queue writes (Count)
system.cpu.intInstQueueWakeupAccesses       190940889                       # Number of integer instruction queue wakeup accesses (Count)
system.cpu.fpInstQueueReads                  13239230                       # Number of floating instruction queue reads (Count)
system.cpu.fpInstQueueWrites                  6682079                       # Number of floating instruction queue writes (Count)
system.cpu.fpInstQueueWakeupAccesses          6589520                       # Number of floating instruction queue wakeup accesses (Count)
system.cpu.vecInstQueueReads                        0                       # Number of vector instruction queue reads (Count)
system.cpu.vecInstQueueWrites                       0                       # Number of vector instruction queue writes (Count)
system.cpu.vecInstQueueWakeupAccesses               0                       # Number of vector instruction queue wakeup accesses (Count)
system.cpu.intAluAccesses                   193706330                       # Number of integer alu accesses (Count)
system.cpu.fpAluAccesses                      6640197                       # Number of floating point alu accesses (Count)
system.cpu.vecAluAccesses                           0                       # Number of vector alu accesses (Count)
system.cpu.numSquashedInsts                    177642                       # Number of squashed instructions skipped in execute (Count)
system.cpu.numSwp                                   0                       # Number of swp insts executed (Count)
system.cpu.timesIdled                          117315                       # Number of times that the entire CPU went into an idle state and unscheduled itself (Count)
system.cpu.idleCycles                          642268                       # Total number of cycles that the CPU has spent unscheduled due to idling (Cycle)
system.cpu.MemDepUnit__0.insertedLoads       27217951                       # Number of loads inserted to the mem dependence unit. (Count)
system.cpu.MemDepUnit__0.insertedStores      16548342                       # Number of stores inserted to the mem dependence unit. (Count)
system.cpu.MemDepUnit__0.conflictingLoads       686274                       # Number of conflicting loads. (Count)
system.cpu.MemDepUnit__0.conflictingStores       584235                       # Number of conflicting stores. (Count)
system.cpu.MemDepUnit__1.insertedLoads              0                       # Number of loads inserted to the mem dependence unit. (Count)
system.cpu.MemDepUnit__1.insertedStores             0                       # Number of stores inserted to the mem dependence unit. (Count)
system.cpu.MemDepUnit__1.conflictingLoads            0                       # Number of conflicting loads. (Count)
system.cpu.MemDepUnit__1.conflictingStores            0                       # Number of conflicting stores. (Count)
system.cpu.MemDepUnit__2.insertedLoads              0                       # Number of loads inserted to the mem dependence unit. (Count)
system.cpu.MemDepUnit__2.insertedStores             0                       # Number of stores inserted to the mem dependence unit. (Count)
system.cpu.MemDepUnit__2.conflictingLoads            0                       # Number of conflicting loads. (Count)
system.cpu.MemDepUnit__2.conflictingStores            0                       # Number of conflicting stores. (Count)
system.cpu.MemDepUnit__3.insertedLoads              0                       # Number of loads inserted to the mem dependence unit. (Count)
system.cpu.MemDepUnit__3.insertedStores             0                       # Number of stores inserted to the mem dependence unit. (Count)
system.cpu.MemDepUnit__3.conflictingLoads            0                       # Number of conflicting loads. (Count)
system.cpu.MemDepUnit__3.conflictingStores            0                       # Number of conflicting stores. (Count)
system.cpu.branchPred.lookups_0::NoBranch         2867      0.01%      0.01% # Number of BP lookups (Count)
system.cpu.branchPred.lookups_0::Return       1143201      5.15%      5.16% # Number of BP lookups (Count)
system.cpu.branchPred.lookups_0::CallDirect      1282571      5.78%     10.94% # Number of BP lookups (Count)
system.cpu.branchPred.lookups_0::CallIndirect         1429      0.01%     10.95% # Number of BP lookups (Count)
system.cpu.branchPred.lookups_0::DirectCond     16974158     76.47%     87.42% # Number of BP lookups (Count)
system.cpu.branchPred.lookups_0::DirectUncond      1754439      7.90%     95.33% # Number of BP lookups (Count)
system.cpu.branchPred.lookups_0::IndirectCond            0      0.00%     95.33% # Number of BP lookups (Count)
system.cpu.branchPred.lookups_0::IndirectUncond      1037406      4.67%    100.00% # Number of BP lookups (Count)
system.cpu.branchPred.lookups_0::total       22196071                       # Number of BP lookups (Count)
system.cpu.branchPred.squashes_0::NoBranch         2539      0.13%      0.13% # Number of branches that got squashed (completely removed) as an earlier branch was mispredicted. (Count)
system.cpu.branchPred.squashes_0::Return        11066      0.58%      0.71% # Number of branches that got squashed (completely removed) as an earlier branch was mispredicted. (Count)
system.cpu.branchPred.squashes_0::CallDirect       151034      7.88%      8.59% # Number of branches that got squashed (completely removed) as an earlier branch was mispredicted. (Count)
system.cpu.branchPred.squashes_0::CallIndirect          825      0.04%      8.64% # Number of branches that got squashed (completely removed) as an earlier branch was mispredicted. (Count)
system.cpu.branchPred.squashes_0::DirectCond      1367309     71.36%     80.00% # Number of branches that got squashed (completely removed) as an earlier branch was mispredicted. (Count)
system.cpu.branchPred.squashes_0::DirectUncond       269020     14.04%     94.04% # Number of branches that got squashed (completely removed) as an earlier branch was mispredicted. (Count)
system.cpu.branchPred.squashes_0::IndirectCond            0      0.00%     94.04% # Number of branches that got squashed (completely removed) as an earlier branch was mispredicted. (Count)
system.cpu.branchPred.squashes_0::IndirectUncond       114237      5.96%    100.00% # Number of branches that got squashed (completely removed) as an earlier branch was mispredicted. (Count)
system.cpu.branchPred.squashes_0::total       1916030                       # Number of branches that got squashed (completely removed) as an earlier branch was mispredicted. (Count)
system.cpu.branchPred.corrected_0::NoBranch          565      0.37%      0.37% # Number of branches that got corrected but not yet commited. Branches get corrected by decode or after execute. Also a branch misprediction can be detected out-of-order. Therefore, a corrected branch might not end up beeing committed in case an even earlier branch was mispredicted (Count)
system.cpu.branchPred.corrected_0::Return           17      0.01%      0.38% # Number of branches that got corrected but not yet commited. Branches get corrected by decode or after execute. Also a branch misprediction can be detected out-of-order. Therefore, a corrected branch might not end up beeing committed in case an even earlier branch was mispredicted (Count)
system.cpu.branchPred.corrected_0::CallDirect          855      0.56%      0.95% # Number of branches that got corrected but not yet commited. Branches get corrected by decode or after execute. Also a branch misprediction can be detected out-of-order. Therefore, a corrected branch might not end up beeing committed in case an even earlier branch was mispredicted (Count)
system.cpu.branchPred.corrected_0::CallIndirect          247      0.16%      1.11% # Number of branches that got corrected but not yet commited. Branches get corrected by decode or after execute. Also a branch misprediction can be detected out-of-order. Therefore, a corrected branch might not end up beeing committed in case an even earlier branch was mispredicted (Count)
system.cpu.branchPred.corrected_0::DirectCond       148053     97.63%     98.74% # Number of branches that got corrected but not yet commited. Branches get corrected by decode or after execute. Also a branch misprediction can be detected out-of-order. Therefore, a corrected branch might not end up beeing committed in case an even earlier branch was mispredicted (Count)
system.cpu.branchPred.corrected_0::DirectUncond          652      0.43%     99.17% # Number of branches that got corrected but not yet commited. Branches get corrected by decode or after execute. Also a branch misprediction can be detected out-of-order. Therefore, a corrected branch might not end up beeing committed in case an even earlier branch was mispredicted (Count)
system.cpu.branchPred.corrected_0::IndirectCond            0      0.00%     99.17% # Number of branches that got corrected but not yet commited. Branches get corrected by decode or after execute. Also a branch misprediction can be detected out-of-order. Therefore, a corrected branch might not end up beeing committed in case an even earlier branch was mispredicted (Count)
system.cpu.branchPred.corrected_0::IndirectUncond         1253      0.83%    100.00% # Number of branches that got corrected but not yet commited. Branches get corrected by decode or after execute. Also a branch misprediction can be detected out-of-order. Therefore, a corrected branch might not end up beeing committed in case an even earlier branch was mispredicted (Count)
system.cpu.branchPred.corrected_0::total       151642                       # Number of branches that got corrected but not yet commited. Branches get corrected by decode or after execute. Also a branch misprediction can be detected out-of-order. Therefore, a corrected branch might not end up beeing committed in case an even earlier branch was mispredicted (Count)
system.cpu.branchPred.earlyResteers_0::NoBranch            0                       # Number of branches that got redirected after decode. (Count)
system.cpu.branchPred.earlyResteers_0::Return            0                       # Number of branches that got redirected after decode. (Count)
system.cpu.branchPred.earlyResteers_0::CallDirect            0                       # Number of branches that got redirected after decode. (Count)
system.cpu.branchPred.earlyResteers_0::CallIndirect            0                       # Number of branches that got redirected after decode. (Count)
system.cpu.branchPred.earlyResteers_0::DirectCond            0                       # Number of branches that got redirected after decode. (Count)
system.cpu.branchPred.earlyResteers_0::DirectUncond            0                       # Number of branches that got redirected after decode. (Count)
system.cpu.branchPred.earlyResteers_0::IndirectCond            0                       # Number of branches that got redirected after decode. (Count)
system.cpu.branchPred.earlyResteers_0::IndirectUncond            0                       # Number of branches that got redirected after decode. (Count)
system.cpu.branchPred.earlyResteers_0::total            0                       # Number of branches that got redirected after decode. (Count)
system.cpu.branchPred.committed_0::NoBranch          328      0.00%      0.00% # Number of branches finally committed  (Count)
system.cpu.branchPred.committed_0::Return      1132134      5.58%      5.58% # Number of branches finally committed  (Count)
system.cpu.branchPred.committed_0::CallDirect      1131535      5.58%     11.16% # Number of branches finally committed  (Count)
system.cpu.branchPred.committed_0::CallIndirect          604      0.00%     11.17% # Number of branches finally committed  (Count)
system.cpu.branchPred.committed_0::DirectCond     15606849     76.96%     88.12% # Number of branches finally committed  (Count)
system.cpu.branchPred.committed_0::DirectUncond      1485419      7.32%     95.45% # Number of branches finally committed  (Count)
system.cpu.branchPred.committed_0::IndirectCond            0      0.00%     95.45% # Number of branches finally committed  (Count)
system.cpu.branchPred.committed_0::IndirectUncond       923169      4.55%    100.00% # Number of branches finally committed  (Count)
system.cpu.branchPred.committed_0::total     20280038                       # Number of branches finally committed  (Count)
system.cpu.branchPred.mispredicted_0::NoBranch          328      0.22%      0.22% # Number of committed branches that were mispredicted. (Count)
system.cpu.branchPred.mispredicted_0::Return            0      0.00%      0.22% # Number of committed branches that were mispredicted. (Count)
system.cpu.branchPred.mispredicted_0::CallDirect          458      0.31%      0.54% # Number of committed branches that were mispredicted. (Count)
system.cpu.branchPred.mispredicted_0::CallIndirect          213      0.15%      0.68% # Number of committed branches that were mispredicted. (Count)
system.cpu.branchPred.mispredicted_0::DirectCond       144248     98.30%     98.98% # Number of committed branches that were mispredicted. (Count)
system.cpu.branchPred.mispredicted_0::DirectUncond          337      0.23%     99.21% # Number of committed branches that were mispredicted. (Count)
system.cpu.branchPred.mispredicted_0::IndirectCond            0      0.00%     99.21% # Number of committed branches that were mispredicted. (Count)
system.cpu.branchPred.mispredicted_0::IndirectUncond         1165      0.79%    100.00% # Number of committed branches that were mispredicted. (Count)
system.cpu.branchPred.mispredicted_0::total       146749                       # Number of committed branches that were mispredicted. (Count)
system.cpu.branchPred.targetProvider_0::NoTarget     12350646     55.64%     55.64% # The component providing the target for taken branches (Count)
system.cpu.branchPred.targetProvider_0::BTB      7672722     34.57%     90.21% # The component providing the target for taken branches (Count)
system.cpu.branchPred.targetProvider_0::RAS      1143197      5.15%     95.36% # The component providing the target for taken branches (Count)
system.cpu.branchPred.targetProvider_0::Indirect      1029506      4.64%    100.00% # The component providing the target for taken branches (Count)
system.cpu.branchPred.targetProvider_0::total     22196071                       # The component providing the target for taken branches (Count)
system.cpu.branchPred.targetWrong_0::NoBranch        90488     60.61%     60.61% # Number of branches where the target was incorrect or not available at prediction time. (Count)
system.cpu.branchPred.targetWrong_0::Return        58624     39.27%     99.88% # Number of branches where the target was incorrect or not available at prediction time. (Count)
system.cpu.branchPred.targetWrong_0::CallDirect           17      0.01%     99.89% # Number of branches where the target was incorrect or not available at prediction time. (Count)
system.cpu.branchPred.targetWrong_0::CallIndirect          159      0.11%    100.00% # Number of branches where the target was incorrect or not available at prediction time. (Count)
system.cpu.branchPred.targetWrong_0::DirectCond            0      0.00%    100.00% # Number of branches where the target was incorrect or not available at prediction time. (Count)
system.cpu.branchPred.targetWrong_0::DirectUncond            0      0.00%    100.00% # Number of branches where the target was incorrect or not available at prediction time. (Count)
system.cpu.branchPred.targetWrong_0::IndirectCond            0      0.00%    100.00% # Number of branches where the target was incorrect or not available at prediction time. (Count)
system.cpu.branchPred.targetWrong_0::IndirectUncond            0      0.00%    100.00% # Number of branches where the target was incorrect or not available at prediction time. (Count)
system.cpu.branchPred.targetWrong_0::total       149288                       # Number of branches where the target was incorrect or not available at prediction time. (Count)
system.cpu.branchPred.condPredicted          16977025                       # Number of conditional branches predicted (Count)
system.cpu.branchPred.condPredictedTaken      4642013                       # Number of conditional branches predicted as taken (Count)
system.cpu.branchPred.condIncorrect            151642                       # Number of conditional branches incorrect (Count)
system.cpu.branchPred.predTakenBTBMiss           1890                       # Number of branches predicted taken but missed in BTB (Count)
system.cpu.branchPred.NotTakenMispredicted        92387                       # Number branches predicted 'not taken' but turned out to be taken (Count)
system.cpu.branchPred.TakenMispredicted         59255                       # Number branches predicted taken but are actually not taken (Count)
system.cpu.branchPred.BTBLookups             22196071                       # Number of BTB lookups (Count)
system.cpu.branchPred.BTBUpdates                90305                       # Number of BTB updates (Count)
system.cpu.branchPred.BTBHits                12933817                       # Number of BTB hits (Count)
system.cpu.branchPred.BTBHitRatio            0.582707                       # BTB Hit Ratio (Ratio)
system.cpu.branchPred.BTBMispredicted            2850                       # Number BTB mispredictions. No target found or target wrong (Count)
system.cpu.branchPred.indirectLookups         1038835                       # Number of indirect predictor lookups. (Count)
system.cpu.branchPred.indirectHits            1029506                       # Number of indirect target hits. (Count)
system.cpu.branchPred.indirectMisses             9329                       # Number of indirect misses. (Count)
system.cpu.branchPred.indirectMispredicted            0                       # Number of mispredicted indirect branches. (Count)
system.cpu.branchPred.btb.lookups::NoBranch         2867      0.01%      0.01% # Number of BTB lookups (Count)
system.cpu.branchPred.btb.lookups::Return      1143201      5.15%      5.16% # Number of BTB lookups (Count)
system.cpu.branchPred.btb.lookups::CallDirect      1282571      5.78%     10.94% # Number of BTB lookups (Count)
system.cpu.branchPred.btb.lookups::CallIndirect         1429      0.01%     10.95% # Number of BTB lookups (Count)
system.cpu.branchPred.btb.lookups::DirectCond     16974158     76.47%     87.42% # Number of BTB lookups (Count)
system.cpu.branchPred.btb.lookups::DirectUncond      1754439      7.90%     95.33% # Number of BTB lookups (Count)
system.cpu.branchPred.btb.lookups::IndirectCond            0      0.00%     95.33% # Number of BTB lookups (Count)
system.cpu.branchPred.btb.lookups::IndirectUncond      1037406      4.67%    100.00% # Number of BTB lookups (Count)
system.cpu.branchPred.btb.lookups::total     22196071                       # Number of BTB lookups (Count)
system.cpu.branchPred.btb.misses::NoBranch          572      0.01%      0.01% # Number of BTB misses (Count)
system.cpu.branchPred.btb.misses::Return      1143201     12.34%     12.35% # Number of BTB misses (Count)
system.cpu.branchPred.btb.misses::CallDirect         1448      0.02%     12.36% # Number of BTB misses (Count)
system.cpu.branchPred.btb.misses::CallIndirect         1429      0.02%     12.38% # Number of BTB misses (Count)
system.cpu.branchPred.btb.misses::DirectCond      7077044     76.41%     88.79% # Number of BTB misses (Count)
system.cpu.branchPred.btb.misses::DirectUncond         1154      0.01%     88.80% # Number of BTB misses (Count)
system.cpu.branchPred.btb.misses::IndirectCond            0      0.00%     88.80% # Number of BTB misses (Count)
system.cpu.branchPred.btb.misses::IndirectUncond      1037406     11.20%    100.00% # Number of BTB misses (Count)
system.cpu.branchPred.btb.misses::total       9262254                       # Number of BTB misses (Count)
system.cpu.branchPred.btb.updates::NoBranch            0      0.00%      0.00% # Number of BTB updates (Count)
system.cpu.branchPred.btb.updates::Return            0      0.00%      0.00% # Number of BTB updates (Count)
system.cpu.branchPred.btb.updates::CallDirect          855      0.95%      0.95% # Number of BTB updates (Count)
system.cpu.branchPred.btb.updates::CallIndirect            0      0.00%      0.95% # Number of BTB updates (Count)
system.cpu.branchPred.btb.updates::DirectCond        88798     98.33%     99.28% # Number of BTB updates (Count)
system.cpu.branchPred.btb.updates::DirectUncond          652      0.72%    100.00% # Number of BTB updates (Count)
system.cpu.branchPred.btb.updates::IndirectCond            0      0.00%    100.00% # Number of BTB updates (Count)
system.cpu.branchPred.btb.updates::IndirectUncond            0      0.00%    100.00% # Number of BTB updates (Count)
system.cpu.branchPred.btb.updates::total        90305                       # Number of BTB updates (Count)
system.cpu.branchPred.btb.mispredict::NoBranch            0      0.00%      0.00% # Number of BTB mispredictions. No target found or target wrong. (Count)
system.cpu.branchPred.btb.mispredict::Return            0      0.00%      0.00% # Number of BTB mispredictions. No target found or target wrong. (Count)
system.cpu.branchPred.btb.mispredict::CallDirect          855      0.95%      0.95% # Number of BTB mispredictions. No target found or target wrong. (Count)
system.cpu.branchPred.btb.mispredict::CallIndirect            0      0.00%      0.95% # Number of BTB mispredictions. No target found or target wrong. (Count)
system.cpu.branchPred.btb.mispredict::DirectCond        88798     98.33%     99.28% # Number of BTB mispredictions. No target found or target wrong. (Count)
system.cpu.branchPred.btb.mispredict::DirectUncond          652      0.72%    100.00% # Number of BTB mispredictions. No target found or target wrong. (Count)
system.cpu.branchPred.btb.mispredict::IndirectCond            0      0.00%    100.00% # Number of BTB mispredictions. No target found or target wrong. (Count)
system.cpu.branchPred.btb.mispredict::IndirectUncond            0      0.00%    100.00% # Number of BTB mispredictions. No target found or target wrong. (Count)
system.cpu.branchPred.btb.mispredict::total        90305                       # Number of BTB mispredictions. No target found or target wrong. (Count)
system.cpu.branchPred.btb.power_state.pwrStateResidencyTicks::UNDEFINED 1083051056380                       # Cumulative time (in ticks) in various power states (Tick)
system.cpu.branchPred.indirectBranchPred.lookups      1038835                       # Number of lookups (Count)
system.cpu.branchPred.indirectBranchPred.hits      1029506                       # Number of hits of a tag (Count)
system.cpu.branchPred.indirectBranchPred.misses         9329                       # Number of misses (Count)
system.cpu.branchPred.indirectBranchPred.targetRecords         1500                       # Number of targets that where recorded/installed in the cache (Count)
system.cpu.branchPred.indirectBranchPred.indirectRecords      1040335                       # Number of indirect branches/calls recorded in the indirect hist (Count)
system.cpu.branchPred.indirectBranchPred.speculativeOverflows            3                       # Number of times more than the allowed capacity for speculative branches/calls where in flight and destroy the path history (Count)
system.cpu.branchPred.ras.pushes              1295066                       # Number of times a PC was pushed onto the RAS (Count)
system.cpu.branchPred.ras.pops                1295060                       # Number of times a PC was poped from the RAS (Count)
system.cpu.branchPred.ras.squashes             162925                       # Number of times the stack operation was squashed due to wrong speculation. (Count)
system.cpu.branchPred.ras.used                1132134                       # Number of times the RAS is the provider (Count)
system.cpu.branchPred.ras.correct             1132134                       # Number of times the RAS is the provider and the prediction is correct (Count)
system.cpu.branchPred.ras.incorrect                 0                       # Number of times the RAS is the provider and the prediction is wrong (Count)
system.cpu.commit.commitSquashedInsts        12561081                       # The number of squashed insts skipped by commit (Count)
system.cpu.commit.commitNonSpecStalls            3353                       # The number of times commit has been forced to stall to communicate backwards (Count)
system.cpu.commit.branchMispredicts            150166                       # The number of times a branch was mispredicted (Count)
system.cpu.commit.numCommittedDist::samples     78937028                       # Number of insts commited each cycle (Count)
system.cpu.commit.numCommittedDist::mean     2.386869                       # Number of insts commited each cycle (Count)
system.cpu.commit.numCommittedDist::stdev     3.235873                       # Number of insts commited each cycle (Count)
system.cpu.commit.numCommittedDist::underflows            0      0.00%      0.00% # Number of insts commited each cycle (Count)
system.cpu.commit.numCommittedDist::0        40904934     51.82%     51.82% # Number of insts commited each cycle (Count)
system.cpu.commit.numCommittedDist::1         8835369     11.19%     63.01% # Number of insts commited each cycle (Count)
system.cpu.commit.numCommittedDist::2         2113295      2.68%     65.69% # Number of insts commited each cycle (Count)
system.cpu.commit.numCommittedDist::3         6019942      7.63%     73.32% # Number of insts commited each cycle (Count)
system.cpu.commit.numCommittedDist::4         1512672      1.92%     75.23% # Number of insts commited each cycle (Count)
system.cpu.commit.numCommittedDist::5          777617      0.99%     76.22% # Number of insts commited each cycle (Count)
system.cpu.commit.numCommittedDist::6         1083227      1.37%     77.59% # Number of insts commited each cycle (Count)
system.cpu.commit.numCommittedDist::7          667363      0.85%     78.44% # Number of insts commited each cycle (Count)
system.cpu.commit.numCommittedDist::8        17022609     21.56%    100.00% # Number of insts commited each cycle (Count)
system.cpu.commit.numCommittedDist::overflows            0      0.00%    100.00% # Number of insts commited each cycle (Count)
system.cpu.commit.numCommittedDist::min_value            0                       # Number of insts commited each cycle (Count)
system.cpu.commit.numCommittedDist::max_value            8                       # Number of insts commited each cycle (Count)
system.cpu.commit.numCommittedDist::total     78937028                       # Number of insts commited each cycle (Count)
system.cpu.commit.amos                              0                       # Number of atomic instructions committed (Count)
system.cpu.commit.membars                        1756                       # Number of memory barriers committed (Count)
system.cpu.commit.functionCalls               1132139                       # Number of function calls committed. (Count)
system.cpu.commit.committedInstType_0::No_OpClass      1616350      0.86%      0.86% # Class of committed instruction (Count)
system.cpu.commit.committedInstType_0::IntAlu    137468598     72.96%     73.82% # Class of committed instruction (Count)
system.cpu.commit.committedInstType_0::IntMult          175      0.00%     73.82% # Class of committed instruction (Count)
system.cpu.commit.committedInstType_0::IntDiv      5467104      2.90%     76.72% # Class of committed instruction (Count)
system.cpu.commit.committedInstType_0::FloatAdd       610760      0.32%     77.05% # Class of committed instruction (Count)
system.cpu.commit.committedInstType_0::FloatCmp            0      0.00%     77.05% # Class of committed instruction (Count)
system.cpu.commit.committedInstType_0::FloatCvt         1264      0.00%     77.05% # Class of committed instruction (Count)
system.cpu.commit.committedInstType_0::FloatMult            0      0.00%     77.05% # Class of committed instruction (Count)
system.cpu.commit.committedInstType_0::FloatMultAcc            0      0.00%     77.05% # Class of committed instruction (Count)
system.cpu.commit.committedInstType_0::FloatDiv            0      0.00%     77.05% # Class of committed instruction (Count)
system.cpu.commit.committedInstType_0::FloatMisc            0      0.00%     77.05% # Class of committed instruction (Count)
system.cpu.commit.committedInstType_0::FloatSqrt            0      0.00%     77.05% # Class of committed instruction (Count)
system.cpu.commit.committedInstType_0::SimdAdd         6580      0.00%     77.05% # Class of committed instruction (Count)
system.cpu.commit.committedInstType_0::SimdAddAcc            0      0.00%     77.05% # Class of committed instruction (Count)
system.cpu.commit.committedInstType_0::SimdAlu       703763      0.37%     77.42% # Class of committed instruction (Count)
system.cpu.commit.committedInstType_0::SimdCmp           36      0.00%     77.42% # Class of committed instruction (Count)
system.cpu.commit.committedInstType_0::SimdCvt        13736      0.01%     77.43% # Class of committed instruction (Count)
system.cpu.commit.committedInstType_0::SimdMisc       770075      0.41%     77.84% # Class of committed instruction (Count)
system.cpu.commit.committedInstType_0::SimdMult            0      0.00%     77.84% # Class of committed instruction (Count)
system.cpu.commit.committedInstType_0::SimdMultAcc            0      0.00%     77.84% # Class of committed instruction (Count)
system.cpu.commit.committedInstType_0::SimdMatMultAcc            0      0.00%     77.84% # Class of committed instruction (Count)
system.cpu.commit.committedInstType_0::SimdShift         2065      0.00%     77.84% # Class of committed instruction (Count)
system.cpu.commit.committedInstType_0::SimdShiftAcc            0      0.00%     77.84% # Class of committed instruction (Count)
system.cpu.commit.committedInstType_0::SimdDiv            0      0.00%     77.84% # Class of committed instruction (Count)
system.cpu.commit.committedInstType_0::SimdSqrt            0      0.00%     77.84% # Class of committed instruction (Count)
system.cpu.commit.committedInstType_0::SimdFloatAdd           77      0.00%     77.84% # Class of committed instruction (Count)
system.cpu.commit.committedInstType_0::SimdFloatAlu            0      0.00%     77.84% # Class of committed instruction (Count)
system.cpu.commit.committedInstType_0::SimdFloatCmp            0      0.00%     77.84% # Class of committed instruction (Count)
system.cpu.commit.committedInstType_0::SimdFloatCvt          382      0.00%     77.84% # Class of committed instruction (Count)
system.cpu.commit.committedInstType_0::SimdFloatDiv           39      0.00%     77.84% # Class of committed instruction (Count)
system.cpu.commit.committedInstType_0::SimdFloatMisc            0      0.00%     77.84% # Class of committed instruction (Count)
system.cpu.commit.committedInstType_0::SimdFloatMult           38      0.00%     77.84% # Class of committed instruction (Count)
system.cpu.commit.committedInstType_0::SimdFloatMultAcc            0      0.00%     77.84% # Class of committed instruction (Count)
system.cpu.commit.committedInstType_0::SimdFloatMatMultAcc            0      0.00%     77.84% # Class of committed instruction (Count)
system.cpu.commit.committedInstType_0::SimdFloatSqrt            0      0.00%     77.84% # Class of committed instruction (Count)
system.cpu.commit.committedInstType_0::SimdReduceAdd            0      0.00%     77.84% # Class of committed instruction (Count)
system.cpu.commit.committedInstType_0::SimdReduceAlu            0      0.00%     77.84% # Class of committed instruction (Count)
system.cpu.commit.committedInstType_0::SimdReduceCmp            0      0.00%     77.84% # Class of committed instruction (Count)
system.cpu.commit.committedInstType_0::SimdFloatReduceAdd            0      0.00%     77.84% # Class of committed instruction (Count)
system.cpu.commit.committedInstType_0::SimdFloatReduceCmp            0      0.00%     77.84% # Class of committed instruction (Count)
system.cpu.commit.committedInstType_0::SimdAes            0      0.00%     77.84% # Class of committed instruction (Count)
system.cpu.commit.committedInstType_0::SimdAesMix            0      0.00%     77.84% # Class of committed instruction (Count)
system.cpu.commit.committedInstType_0::SimdSha1Hash            0      0.00%     77.84% # Class of committed instruction (Count)
system.cpu.commit.committedInstType_0::SimdSha1Hash2            0      0.00%     77.84% # Class of committed instruction (Count)
system.cpu.commit.committedInstType_0::SimdSha256Hash            0      0.00%     77.84% # Class of committed instruction (Count)
system.cpu.commit.committedInstType_0::SimdSha256Hash2            0      0.00%     77.84% # Class of committed instruction (Count)
system.cpu.commit.committedInstType_0::SimdShaSigma2            0      0.00%     77.84% # Class of committed instruction (Count)
system.cpu.commit.committedInstType_0::SimdShaSigma3            0      0.00%     77.84% # Class of committed instruction (Count)
system.cpu.commit.committedInstType_0::SimdPredAlu            0      0.00%     77.84% # Class of committed instruction (Count)
system.cpu.commit.committedInstType_0::Matrix            0      0.00%     77.84% # Class of committed instruction (Count)
system.cpu.commit.committedInstType_0::MatrixMov            0      0.00%     77.84% # Class of committed instruction (Count)
system.cpu.commit.committedInstType_0::MatrixOP            0      0.00%     77.84% # Class of committed instruction (Count)
system.cpu.commit.committedInstType_0::MemRead     25193262     13.37%     91.21% # Class of committed instruction (Count)
system.cpu.commit.committedInstType_0::MemWrite     13013999      6.91%     98.12% # Class of committed instruction (Count)
system.cpu.commit.committedInstType_0::FloatMemRead       508350      0.27%     98.39% # Class of committed instruction (Count)
system.cpu.commit.committedInstType_0::FloatMemWrite      3035680      1.61%    100.00% # Class of committed instruction (Count)
system.cpu.commit.committedInstType_0::IprAccess            0      0.00%    100.00% # Class of committed instruction (Count)
system.cpu.commit.committedInstType_0::InstPrefetch            0      0.00%    100.00% # Class of committed instruction (Count)
system.cpu.commit.committedInstType_0::SimdUnitStrideLoad            0      0.00%    100.00% # Class of committed instruction (Count)
system.cpu.commit.committedInstType_0::SimdUnitStrideStore            0      0.00%    100.00% # Class of committed instruction (Count)
system.cpu.commit.committedInstType_0::SimdUnitStrideMaskLoad            0      0.00%    100.00% # Class of committed instruction (Count)
system.cpu.commit.committedInstType_0::SimdUnitStrideMaskStore            0      0.00%    100.00% # Class of committed instruction (Count)
system.cpu.commit.committedInstType_0::SimdStridedLoad            0      0.00%    100.00% # Class of committed instruction (Count)
system.cpu.commit.committedInstType_0::SimdStridedStore            0      0.00%    100.00% # Class of committed instruction (Count)
system.cpu.commit.committedInstType_0::SimdIndexedLoad            0      0.00%    100.00% # Class of committed instruction (Count)
system.cpu.commit.committedInstType_0::SimdIndexedStore            0      0.00%    100.00% # Class of committed instruction (Count)
system.cpu.commit.committedInstType_0::SimdWholeRegisterLoad            0      0.00%    100.00% # Class of committed instruction (Count)
system.cpu.commit.committedInstType_0::SimdWholeRegisterStore            0      0.00%    100.00% # Class of committed instruction (Count)
system.cpu.commit.committedInstType_0::SimdUnitStrideFaultOnlyFirstLoad            0      0.00%    100.00% # Class of committed instruction (Count)
system.cpu.commit.committedInstType_0::SimdUnitStrideSegmentedLoad            0      0.00%    100.00% # Class of committed instruction (Count)
system.cpu.commit.committedInstType_0::SimdUnitStrideSegmentedStore            0      0.00%    100.00% # Class of committed instruction (Count)
system.cpu.commit.committedInstType_0::SimdExt            0      0.00%    100.00% # Class of committed instruction (Count)
system.cpu.commit.committedInstType_0::SimdFloatExt            0      0.00%    100.00% # Class of committed instruction (Count)
system.cpu.commit.committedInstType_0::SimdConfig            0      0.00%    100.00% # Class of committed instruction (Count)
system.cpu.commit.committedInstType_0::total    188412333                       # Class of committed instruction (Count)
system.cpu.commit.commitEligibleSamples      17022609                       # number cycles where commit BW limit reached (Cycle)
system.cpu.commitStats0.numInsts            104722356                       # Number of instructions committed (thread level) (Count)
system.cpu.commitStats0.numOps              188412333                       # Number of ops (including micro ops) committed (thread level) (Count)
system.cpu.commitStats0.numInstsNotNOP      104722356                       # Number of instructions committed excluding NOPs or prefetches (Count)
system.cpu.commitStats0.numOpsNotNOP        188412333                       # Number of Ops (including micro ops) Simulated (Count)
system.cpu.commitStats0.cpi                  0.775678                       # CPI: cycles per instruction (thread level) ((Cycle/Count))
system.cpu.commitStats0.ipc                  1.289194                       # IPC: instructions per cycle (thread level) ((Count/Cycle))
system.cpu.commitStats0.numMemRefs           41751291                       # Number of memory references committed (Count)
system.cpu.commitStats0.numFpInsts            6564451                       # Number of float instructions (Count)
system.cpu.commitStats0.numIntInsts         183756802                       # Number of integer instructions (Count)
system.cpu.commitStats0.numLoadInsts         25701612                       # Number of load instructions (Count)
system.cpu.commitStats0.numStoreInsts        16049679                       # Number of store instructions (Count)
system.cpu.commitStats0.numVecInsts                 0                       # Number of vector instructions (Count)
system.cpu.commitStats0.committedInstType::No_OpClass      1616350      0.86%      0.86% # Class of committed instruction. (Count)
system.cpu.commitStats0.committedInstType::IntAlu    137468598     72.96%     73.82% # Class of committed instruction. (Count)
system.cpu.commitStats0.committedInstType::IntMult          175      0.00%     73.82% # Class of committed instruction. (Count)
system.cpu.commitStats0.committedInstType::IntDiv      5467104      2.90%     76.72% # Class of committed instruction. (Count)
system.cpu.commitStats0.committedInstType::FloatAdd       610760      0.32%     77.05% # Class of committed instruction. (Count)
system.cpu.commitStats0.committedInstType::FloatCmp            0      0.00%     77.05% # Class of committed instruction. (Count)
system.cpu.commitStats0.committedInstType::FloatCvt         1264      0.00%     77.05% # Class of committed instruction. (Count)
system.cpu.commitStats0.committedInstType::FloatMult            0      0.00%     77.05% # Class of committed instruction. (Count)
system.cpu.commitStats0.committedInstType::FloatMultAcc            0      0.00%     77.05% # Class of committed instruction. (Count)
system.cpu.commitStats0.committedInstType::FloatDiv            0      0.00%     77.05% # Class of committed instruction. (Count)
system.cpu.commitStats0.committedInstType::FloatMisc            0      0.00%     77.05% # Class of committed instruction. (Count)
system.cpu.commitStats0.committedInstType::FloatSqrt            0      0.00%     77.05% # Class of committed instruction. (Count)
system.cpu.commitStats0.committedInstType::SimdAdd         6580      0.00%     77.05% # Class of committed instruction. (Count)
system.cpu.commitStats0.committedInstType::SimdAddAcc            0      0.00%     77.05% # Class of committed instruction. (Count)
system.cpu.commitStats0.committedInstType::SimdAlu       703763      0.37%     77.42% # Class of committed instruction. (Count)
system.cpu.commitStats0.committedInstType::SimdCmp           36      0.00%     77.42% # Class of committed instruction. (Count)
system.cpu.commitStats0.committedInstType::SimdCvt        13736      0.01%     77.43% # Class of committed instruction. (Count)
system.cpu.commitStats0.committedInstType::SimdMisc       770075      0.41%     77.84% # Class of committed instruction. (Count)
system.cpu.commitStats0.committedInstType::SimdMult            0      0.00%     77.84% # Class of committed instruction. (Count)
system.cpu.commitStats0.committedInstType::SimdMultAcc            0      0.00%     77.84% # Class of committed instruction. (Count)
system.cpu.commitStats0.committedInstType::SimdMatMultAcc            0      0.00%     77.84% # Class of committed instruction. (Count)
system.cpu.commitStats0.committedInstType::SimdShift         2065      0.00%     77.84% # Class of committed instruction. (Count)
system.cpu.commitStats0.committedInstType::SimdShiftAcc            0      0.00%     77.84% # Class of committed instruction. (Count)
system.cpu.commitStats0.committedInstType::SimdDiv            0      0.00%     77.84% # Class of committed instruction. (Count)
system.cpu.commitStats0.committedInstType::SimdSqrt            0      0.00%     77.84% # Class of committed instruction. (Count)
system.cpu.commitStats0.committedInstType::SimdFloatAdd           77      0.00%     77.84% # Class of committed instruction. (Count)
system.cpu.commitStats0.committedInstType::SimdFloatAlu            0      0.00%     77.84% # Class of committed instruction. (Count)
system.cpu.commitStats0.committedInstType::SimdFloatCmp            0      0.00%     77.84% # Class of committed instruction. (Count)
system.cpu.commitStats0.committedInstType::SimdFloatCvt          382      0.00%     77.84% # Class of committed instruction. (Count)
system.cpu.commitStats0.committedInstType::SimdFloatDiv           39      0.00%     77.84% # Class of committed instruction. (Count)
system.cpu.commitStats0.committedInstType::SimdFloatMisc            0      0.00%     77.84% # Class of committed instruction. (Count)
system.cpu.commitStats0.committedInstType::SimdFloatMult           38      0.00%     77.84% # Class of committed instruction. (Count)
system.cpu.commitStats0.committedInstType::SimdFloatMultAcc            0      0.00%     77.84% # Class of committed instruction. (Count)
system.cpu.commitStats0.committedInstType::SimdFloatMatMultAcc            0      0.00%     77.84% # Class of committed instruction. (Count)
system.cpu.commitStats0.committedInstType::SimdFloatSqrt            0      0.00%     77.84% # Class of committed instruction. (Count)
system.cpu.commitStats0.committedInstType::SimdReduceAdd            0      0.00%     77.84% # Class of committed instruction. (Count)
system.cpu.commitStats0.committedInstType::SimdReduceAlu            0      0.00%     77.84% # Class of committed instruction. (Count)
system.cpu.commitStats0.committedInstType::SimdReduceCmp            0      0.00%     77.84% # Class of committed instruction. (Count)
system.cpu.commitStats0.committedInstType::SimdFloatReduceAdd            0      0.00%     77.84% # Class of committed instruction. (Count)
system.cpu.commitStats0.committedInstType::SimdFloatReduceCmp            0      0.00%     77.84% # Class of committed instruction. (Count)
system.cpu.commitStats0.committedInstType::SimdAes            0      0.00%     77.84% # Class of committed instruction. (Count)
system.cpu.commitStats0.committedInstType::SimdAesMix            0      0.00%     77.84% # Class of committed instruction. (Count)
system.cpu.commitStats0.committedInstType::SimdSha1Hash            0      0.00%     77.84% # Class of committed instruction. (Count)
system.cpu.commitStats0.committedInstType::SimdSha1Hash2            0      0.00%     77.84% # Class of committed instruction. (Count)
system.cpu.commitStats0.committedInstType::SimdSha256Hash            0      0.00%     77.84% # Class of committed instruction. (Count)
system.cpu.commitStats0.committedInstType::SimdSha256Hash2            0      0.00%     77.84% # Class of committed instruction. (Count)
system.cpu.commitStats0.committedInstType::SimdShaSigma2            0      0.00%     77.84% # Class of committed instruction. (Count)
system.cpu.commitStats0.committedInstType::SimdShaSigma3            0      0.00%     77.84% # Class of committed instruction. (Count)
system.cpu.commitStats0.committedInstType::SimdPredAlu            0      0.00%     77.84% # Class of committed instruction. (Count)
system.cpu.commitStats0.committedInstType::Matrix            0      0.00%     77.84% # Class of committed instruction. (Count)
system.cpu.commitStats0.committedInstType::MatrixMov            0      0.00%     77.84% # Class of committed instruction. (Count)
system.cpu.commitStats0.committedInstType::MatrixOP            0      0.00%     77.84% # Class of committed instruction. (Count)
system.cpu.commitStats0.committedInstType::MemRead     25193262     13.37%     91.21% # Class of committed instruction. (Count)
system.cpu.commitStats0.committedInstType::MemWrite     13013999      6.91%     98.12% # Class of committed instruction. (Count)
system.cpu.commitStats0.committedInstType::FloatMemRead       508350      0.27%     98.39% # Class of committed instruction. (Count)
system.cpu.commitStats0.committedInstType::FloatMemWrite      3035680      1.61%    100.00% # Class of committed instruction. (Count)
system.cpu.commitStats0.committedInstType::IprAccess            0      0.00%    100.00% # Class of committed instruction. (Count)
system.cpu.commitStats0.committedInstType::InstPrefetch            0      0.00%    100.00% # Class of committed instruction. (Count)
system.cpu.commitStats0.committedInstType::SimdUnitStrideLoad            0      0.00%    100.00% # Class of committed instruction. (Count)
system.cpu.commitStats0.committedInstType::SimdUnitStrideStore            0      0.00%    100.00% # Class of committed instruction. (Count)
system.cpu.commitStats0.committedInstType::SimdUnitStrideMaskLoad            0      0.00%    100.00% # Class of committed instruction. (Count)
system.cpu.commitStats0.committedInstType::SimdUnitStrideMaskStore            0      0.00%    100.00% # Class of committed instruction. (Count)
system.cpu.commitStats0.committedInstType::SimdStridedLoad            0      0.00%    100.00% # Class of committed instruction. (Count)
system.cpu.commitStats0.committedInstType::SimdStridedStore            0      0.00%    100.00% # Class of committed instruction. (Count)
system.cpu.commitStats0.committedInstType::SimdIndexedLoad            0      0.00%    100.00% # Class of committed instruction. (Count)
system.cpu.commitStats0.committedInstType::SimdIndexedStore            0      0.00%    100.00% # Class of committed instruction. (Count)
system.cpu.commitStats0.committedInstType::SimdWholeRegisterLoad            0      0.00%    100.00% # Class of committed instruction. (Count)
system.cpu.commitStats0.committedInstType::SimdWholeRegisterStore            0      0.00%    100.00% # Class of committed instruction. (Count)
system.cpu.commitStats0.committedInstType::SimdUnitStrideFaultOnlyFirstLoad            0      0.00%    100.00% # Class of committed instruction. (Count)
system.cpu.commitStats0.committedInstType::SimdUnitStrideSegmentedLoad            0      0.00%    100.00% # Class of committed instruction. (Count)
system.cpu.commitStats0.committedInstType::SimdUnitStrideSegmentedStore            0      0.00%    100.00% # Class of committed instruction. (Count)
system.cpu.commitStats0.committedInstType::SimdExt            0      0.00%    100.00% # Class of committed instruction. (Count)
system.cpu.commitStats0.committedInstType::SimdFloatExt            0      0.00%    100.00% # Class of committed instruction. (Count)
system.cpu.commitStats0.committedInstType::SimdConfig            0      0.00%    100.00% # Class of committed instruction. (Count)
system.cpu.commitStats0.committedInstType::total    188412333                       # Class of committed instruction. (Count)
system.cpu.commitStats0.committedControl::IsControl     20280038                       # Class of control type instructions committed (Count)
system.cpu.commitStats0.committedControl::IsDirectControl     18223803                       # Class of control type instructions committed (Count)
system.cpu.commitStats0.committedControl::IsIndirectControl      2055907                       # Class of control type instructions committed (Count)
system.cpu.commitStats0.committedControl::IsCondControl     15606849                       # Class of control type instructions committed (Count)
system.cpu.commitStats0.committedControl::IsUncondControl      4672861                       # Class of control type instructions committed (Count)
system.cpu.commitStats0.committedControl::IsCall      1132139                       # Class of control type instructions committed (Count)
system.cpu.commitStats0.committedControl::IsReturn      1132134                       # Class of control type instructions committed (Count)
system.cpu.decode.idleCycles                 33580220                       # Number of cycles decode is idle (Cycle)
system.cpu.decode.blockedCycles              15394913                       # Number of cycles decode is blocked (Cycle)
system.cpu.decode.runCycles                  28082220                       # Number of cycles decode is running (Cycle)
system.cpu.decode.unblockCycles               3378983                       # Number of cycles decode is unblocking (Cycle)
system.cpu.decode.squashCycles                 152257                       # Number of cycles decode is squashing (Cycle)
system.cpu.decode.branchResolved              7550225                       # Number of times decode resolved a branch (Count)
system.cpu.decode.branchMispred                  1773                       # Number of times decode detected a branch misprediction (Count)
system.cpu.decode.decodedInsts              202346975                       # Number of instructions handled by decode (Count)
system.cpu.decode.squashedInsts                  9336                       # Number of squashed instructions handled by decode (Count)
system.cpu.executeStats0.numInsts           197850445                       # Number of executed instructions (Count)
system.cpu.executeStats0.numNop                     0                       # Number of nop insts executed (Count)
system.cpu.executeStats0.numBranches         21141068                       # Number of branches executed (Count)
system.cpu.executeStats0.numLoadInsts        26790251                       # Number of load instructions executed (Count)
system.cpu.executeStats0.numStoreInsts       16459331                       # Number of stores executed (Count)
system.cpu.executeStats0.instRate            2.435656                       # Inst execution rate ((Count/Cycle))
system.cpu.executeStats0.numCCRegReads       98319098                       # Number of times the CC registers were read (Count)
system.cpu.executeStats0.numCCRegWrites      64616047                       # Number of times the CC registers were written (Count)
system.cpu.executeStats0.numFpRegReads        7139703                       # Number of times the floating registers were read (Count)
system.cpu.executeStats0.numFpRegWrites       3389424                       # Number of times the floating registers were written (Count)
system.cpu.executeStats0.numIntRegReads     246675426                       # Number of times the integer registers were read (Count)
system.cpu.executeStats0.numIntRegWrites    151030787                       # Number of times the integer registers were written (Count)
system.cpu.executeStats0.numMemRefs          43249582                       # Number of memory refs (Count)
system.cpu.executeStats0.numMiscRegReads     86568959                       # Number of times the Misc registers were read (Count)
system.cpu.executeStats0.numMiscRegWrites          711                       # Number of times the Misc registers were written (Count)
system.cpu.executeStats0.numVecAluAccesses            0                       # Number of vector alu accesses (Count)
system.cpu.executeStats0.numDiscardedOps            0                       # Number of ops (including micro ops) which were discarded before commit (Count)
system.cpu.fetch.predictedBranches            9845425                       # Number of branches that fetch has predicted taken (Count)
system.cpu.fetch.cycles                      46096430                       # Number of cycles fetch has run and was not squashing or blocked (Cycle)
system.cpu.fetch.squashCycles                  307944                       # Number of cycles fetch has spent squashing (Cycle)
system.cpu.fetch.miscStallCycles                  306                       # Number of cycles fetch has spent waiting on interrupts, or bad addresses, or out of MSHRs (Cycle)
system.cpu.fetch.pendingTrapStallCycles          2880                       # Number of stall cycles due to pending traps (Cycle)
system.cpu.fetch.cacheLines                  16329994                       # Number of cache lines fetched (Count)
[...]
system.mem_ctrl.dram.bwInstRead::total      126021541                       # Instruction read bandwidth from this memory ((Byte/Second))
system.mem_ctrl.dram.bwWrite::writebacks     40344023                       # Write bandwidth from this memory ((Byte/Second))
system.mem_ctrl.dram.bwWrite::total          40344023                       # Write bandwidth from this memory ((Byte/Second))
system.mem_ctrl.dram.bwTotal::writebacks     40344023                       # Total bandwidth to/from this memory ((Byte/Second))
system.mem_ctrl.dram.bwTotal::cpu.inst      126021541                       # Total bandwidth to/from this memory ((Byte/Second))
system.mem_ctrl.dram.bwTotal::cpu.data       66740172                       # Total bandwidth to/from this memory ((Byte/Second))
system.mem_ctrl.dram.bwTotal::cpu.l1d.prefetcher     97897877                       # Total bandwidth to/from this memory ((Byte/Second))
system.mem_ctrl.dram.bwTotal::cpu.l1i.prefetcher    401432539                       # Total bandwidth to/from this memory ((Byte/Second))
system.mem_ctrl.dram.bwTotal::total         732436152                       # Total bandwidth to/from this memory ((Byte/Second))
system.mem_ctrl.dram.readBursts                458592                       # Number of DRAM read bursts (Count)
system.mem_ctrl.dram.writeBursts                10771                       # Number of DRAM write bursts (Count)
system.mem_ctrl.dram.perBankRdBursts::0         26537                       # Per bank write bursts (Count)
system.mem_ctrl.dram.perBankRdBursts::1         38252                       # Per bank write bursts (Count)
system.mem_ctrl.dram.perBankRdBursts::2          4180                       # Per bank write bursts (Count)
system.mem_ctrl.dram.perBankRdBursts::3         43265                       # Per bank write bursts (Count)
system.mem_ctrl.dram.perBankRdBursts::4          3084                       # Per bank write bursts (Count)
system.mem_ctrl.dram.perBankRdBursts::5          2948                       # Per bank write bursts (Count)
system.mem_ctrl.dram.perBankRdBursts::6          4086                       # Per bank write bursts (Count)
system.mem_ctrl.dram.perBankRdBursts::7          3483                       # Per bank write bursts (Count)
system.mem_ctrl.dram.perBankRdBursts::8         33496                       # Per bank write bursts (Count)
system.mem_ctrl.dram.perBankRdBursts::9        122874                       # Per bank write bursts (Count)
system.mem_ctrl.dram.perBankRdBursts::10        51610                       # Per bank write bursts (Count)
system.mem_ctrl.dram.perBankRdBursts::11        64987                       # Per bank write bursts (Count)
system.mem_ctrl.dram.perBankRdBursts::12        32246                       # Per bank write bursts (Count)
system.mem_ctrl.dram.perBankRdBursts::13         2355                       # Per bank write bursts (Count)
system.mem_ctrl.dram.perBankRdBursts::14        21867                       # Per bank write bursts (Count)
system.mem_ctrl.dram.perBankRdBursts::15         3322                       # Per bank write bursts (Count)
system.mem_ctrl.dram.perBankWrBursts::0           524                       # Per bank write bursts (Count)
system.mem_ctrl.dram.perBankWrBursts::1           544                       # Per bank write bursts (Count)
system.mem_ctrl.dram.perBankWrBursts::2           836                       # Per bank write bursts (Count)
system.mem_ctrl.dram.perBankWrBursts::3           674                       # Per bank write bursts (Count)
system.mem_ctrl.dram.perBankWrBursts::4           715                       # Per bank write bursts (Count)
system.mem_ctrl.dram.perBankWrBursts::5           780                       # Per bank write bursts (Count)
system.mem_ctrl.dram.perBankWrBursts::6           682                       # Per bank write bursts (Count)
system.mem_ctrl.dram.perBankWrBursts::7           671                       # Per bank write bursts (Count)
system.mem_ctrl.dram.perBankWrBursts::8           495                       # Per bank write bursts (Count)
system.mem_ctrl.dram.perBankWrBursts::9           441                       # Per bank write bursts (Count)
system.mem_ctrl.dram.perBankWrBursts::10         1305                       # Per bank write bursts (Count)
system.mem_ctrl.dram.perBankWrBursts::11          594                       # Per bank write bursts (Count)
system.mem_ctrl.dram.perBankWrBursts::12          696                       # Per bank write bursts (Count)
system.mem_ctrl.dram.perBankWrBursts::13          556                       # Per bank write bursts (Count)
system.mem_ctrl.dram.perBankWrBursts::14          660                       # Per bank write bursts (Count)
system.mem_ctrl.dram.perBankWrBursts::15          598                       # Per bank write bursts (Count)
system.mem_ctrl.dram.totQLat               4646311633                       # Total ticks spent queuing (Tick)
system.mem_ctrl.dram.totBusLat             2292960000                       # Total ticks spent in databus transfers (Tick)
system.mem_ctrl.dram.totMemAccLat         13244911633                       # Total ticks spent from burst creation until serviced by the DRAM (Tick)
system.mem_ctrl.dram.avgQLat                 10131.69                       # Average queueing delay per DRAM burst ((Tick/Count))
system.mem_ctrl.dram.avgBusLat                5000.00                       # Average bus latency per DRAM burst ((Tick/Count))
system.mem_ctrl.dram.avgMemAccLat            28881.69                       # Average memory access latency per DRAM burst ((Tick/Count))
system.mem_ctrl.dram.readRowHits               385397                       # Number of row buffer hits during reads (Count)
system.mem_ctrl.dram.writeRowHits                9851                       # Number of row buffer hits during writes (Count)
system.mem_ctrl.dram.readRowHitRate             84.04                       # Row buffer hit rate for reads (Ratio)
system.mem_ctrl.dram.writeRowHitRate            91.46                       # Row buffer hit rate for writes (Ratio)
system.mem_ctrl.dram.bytesPerActivate::samples        74115                       # Bytes accessed per row activation (Byte)
system.mem_ctrl.dram.bytesPerActivate::mean   405.307428                       # Bytes accessed per row activation (Byte)
system.mem_ctrl.dram.bytesPerActivate::gmean   320.866958                       # Bytes accessed per row activation (Byte)
system.mem_ctrl.dram.bytesPerActivate::stdev   278.971512                       # Bytes accessed per row activation (Byte)
system.mem_ctrl.dram.bytesPerActivate::0-127         3773      5.09%      5.09% # Bytes accessed per row activation (Byte)
system.mem_ctrl.dram.bytesPerActivate::128-255        21848     29.48%     34.57% # Bytes accessed per row activation (Byte)
system.mem_ctrl.dram.bytesPerActivate::256-383        12847     17.33%     51.90% # Bytes accessed per row activation (Byte)
system.mem_ctrl.dram.bytesPerActivate::384-511        17384     23.46%     75.36% # Bytes accessed per row activation (Byte)
system.mem_ctrl.dram.bytesPerActivate::512-639         2156      2.91%     78.27% # Bytes accessed per row activation (Byte)
system.mem_ctrl.dram.bytesPerActivate::640-767         5794      7.82%     86.09% # Bytes accessed per row activation (Byte)
system.mem_ctrl.dram.bytesPerActivate::768-895          433      0.58%     86.67% # Bytes accessed per row activation (Byte)
system.mem_ctrl.dram.bytesPerActivate::896-1023         3686      4.97%     91.64% # Bytes accessed per row activation (Byte)
system.mem_ctrl.dram.bytesPerActivate::1024-1151         6194      8.36%    100.00% # Bytes accessed per row activation (Byte)
system.mem_ctrl.dram.bytesPerActivate::total        74115                       # Bytes accessed per row activation (Byte)
system.mem_ctrl.dram.dramBytesRead           29349888                       # Total bytes read (Byte)
system.mem_ctrl.dram.dramBytesWritten          689344                       # Total bytes written (Byte)
system.mem_ctrl.dram.avgRdBW               665.735176                       # Average DRAM read bandwidth in MiBytes/s ((Byte/Second))
system.mem_ctrl.dram.avgWrBW                15.636194                       # Average DRAM write bandwidth in MiBytes/s ((Byte/Second))
system.mem_ctrl.dram.peakBW                  12800.00                       # Theoretical peak bandwidth in MiByte/s ((Byte/Second))
system.mem_ctrl.dram.busUtil                     5.32                       # Data bus utilization in percentage (Ratio)
system.mem_ctrl.dram.busUtilRead                 5.20                       # Data bus utilization in percentage for reads (Ratio)
system.mem_ctrl.dram.busUtilWrite                0.12                       # Data bus utilization in percentage for writes (Ratio)
system.mem_ctrl.dram.pageHitRate                84.21                       # Row buffer hit rate, read and write combined (Ratio)
system.mem_ctrl.dram.power_state.pwrStateResidencyTicks::UNDEFINED  44086431145                       # Cumulative time (in ticks) in various power states (Tick)
system.mem_ctrl.dram.rank0.actEnergy        175779660                       # Energy for activate commands per rank (pJ) (Joule)
system.mem_ctrl.dram.rank0.preEnergy         93436695                       # Energy for precharge commands per rank (pJ) (Joule)
system.mem_ctrl.dram.rank0.readEnergy       898461900                       # Energy for read commands per rank (pJ) (Joule)
system.mem_ctrl.dram.rank0.writeEnergy       28323720                       # Energy for write commands per rank (pJ) (Joule)
system.mem_ctrl.dram.rank0.refreshEnergy 3480091680.000000                       # Energy for refresh commands per rank (pJ) (Joule)
system.mem_ctrl.dram.rank0.actBackEnergy  17200836420                       # Energy for active background per rank (pJ) (Joule)
system.mem_ctrl.dram.rank0.preBackEnergy   2444274240                       # Energy for precharge background per rank (pJ) (Joule)
system.mem_ctrl.dram.rank0.actPowerDownEnergy            0                       # Energy for active power-down per rank (pJ) (Joule)
system.mem_ctrl.dram.rank0.prePowerDownEnergy            0                       # Energy for precharge power-down per rank (pJ) (Joule)
system.mem_ctrl.dram.rank0.selfRefreshEnergy            0                       # Energy for self refresh per rank (pJ) (Joule)
system.mem_ctrl.dram.rank0.totalEnergy    24321204315                       # Total energy per rank (pJ) (Joule)
system.mem_ctrl.dram.rank0.averagePower    551.670972                       # Core power per rank (mW) (Watt)
system.mem_ctrl.dram.rank0.totalIdleTime            0                       # Total Idle time Per DRAM Rank (Tick)
system.mem_ctrl.dram.rank0.pwrStateTime::IDLE   6204941367                       # Time in different power states (Tick)
system.mem_ctrl.dram.rank0.pwrStateTime::REF   1472120000                       # Time in different power states (Tick)
system.mem_ctrl.dram.rank0.pwrStateTime::SREF            0                       # Time in different power states (Tick)
system.mem_ctrl.dram.rank0.pwrStateTime::PRE_PDN            0                       # Time in different power states (Tick)
system.mem_ctrl.dram.rank0.pwrStateTime::ACT  36409369778                       # Time in different power states (Tick)
system.mem_ctrl.dram.rank0.pwrStateTime::ACT_PDN            0                       # Time in different power states (Tick)
system.mem_ctrl.dram.rank1.actEnergy        353401440                       # Energy for activate commands per rank (pJ) (Joule)
system.mem_ctrl.dram.rank1.preEnergy        187829730                       # Energy for precharge commands per rank (pJ) (Joule)
system.mem_ctrl.dram.rank1.readEnergy      2375884980                       # Energy for read commands per rank (pJ) (Joule)
system.mem_ctrl.dram.rank1.writeEnergy       27900900                       # Energy for write commands per rank (pJ) (Joule)
system.mem_ctrl.dram.rank1.refreshEnergy 3480091680.000000                       # Energy for refresh commands per rank (pJ) (Joule)
system.mem_ctrl.dram.rank1.actBackEnergy  19172954910                       # Energy for active background per rank (pJ) (Joule)
system.mem_ctrl.dram.rank1.preBackEnergy    783542880                       # Energy for precharge background per rank (pJ) (Joule)
system.mem_ctrl.dram.rank1.actPowerDownEnergy            0                       # Energy for active power-down per rank (pJ) (Joule)
system.mem_ctrl.dram.rank1.prePowerDownEnergy            0                       # Energy for precharge power-down per rank (pJ) (Joule)
system.mem_ctrl.dram.rank1.selfRefreshEnergy            0                       # Energy for self refresh per rank (pJ) (Joule)
system.mem_ctrl.dram.rank1.totalEnergy    26381606520                       # Total energy per rank (pJ) (Joule)
system.mem_ctrl.dram.rank1.averagePower    598.406490                       # Core power per rank (mW) (Watt)
system.mem_ctrl.dram.rank1.totalIdleTime            0                       # Total Idle time Per DRAM Rank (Tick)
system.mem_ctrl.dram.rank1.pwrStateTime::IDLE   1875347486                       # Time in different power states (Tick)
system.mem_ctrl.dram.rank1.pwrStateTime::REF   1472120000                       # Time in different power states (Tick)
system.mem_ctrl.dram.rank1.pwrStateTime::SREF            0                       # Time in different power states (Tick)
system.mem_ctrl.dram.rank1.pwrStateTime::PRE_PDN            0                       # Time in different power states (Tick)
system.mem_ctrl.dram.rank1.pwrStateTime::ACT  40738963659                       # Time in different power states (Tick)
system.mem_ctrl.dram.rank1.pwrStateTime::ACT_PDN            0                       # Time in different power states (Tick)
system.mem_ctrl.power_state.pwrStateResidencyTicks::UNDEFINED  44086431145                       # Cumulative time (in ticks) in various power states (Tick)
system.membus.transDist::ReadResp              460568                       # Transaction distribution (Count)
system.membus.transDist::WritebackDirty         27791                       # Transaction distribution (Count)
system.membus.transDist::CleanEvict            448961                       # Transaction distribution (Count)
system.membus.transDist::UpgradeReq                 1                       # Transaction distribution (Count)
system.membus.transDist::ReadExReq              16183                       # Transaction distribution (Count)
system.membus.transDist::ReadExResp             16183                       # Transaction distribution (Count)
system.membus.transDist::ReadSharedReq         460567                       # Transaction distribution (Count)
system.membus.pktCount_system.cpu.l1d.mem_side_port::system.mem_ctrl.port       340236                       # Packet count per connected requestor and responder (Count)
system.membus.pktCount_system.cpu.l1d.mem_side_port::total       340236                       # Packet count per connected requestor and responder (Count)
system.membus.pktCount_system.cpu.l1i.mem_side_port::system.mem_ctrl.port      1090016                       # Packet count per connected requestor and responder (Count)
system.membus.pktCount_system.cpu.l1i.mem_side_port::total      1090016                       # Packet count per connected requestor and responder (Count)
system.membus.pktCount::total                 1430252                       # Packet count per connected requestor and responder (Count)
system.membus.pktSize_system.cpu.l1d.mem_side_port::system.mem_ctrl.port      9036992                       # Cumulative packet size per connected requestor and responder (Byte)
system.membus.pktSize_system.cpu.l1d.mem_side_port::total      9036992                       # Cumulative packet size per connected requestor and responder (Byte)
system.membus.pktSize_system.cpu.l1i.mem_side_port::system.mem_ctrl.port     23253568                       # Cumulative packet size per connected requestor and responder (Byte)
system.membus.pktSize_system.cpu.l1i.mem_side_port::total     23253568                       # Cumulative packet size per connected requestor and responder (Byte)
system.membus.pktSize::total                 32290560                       # Cumulative packet size per connected requestor and responder (Byte)
system.membus.snoops                                2                       # Total snoops (Count)
system.membus.snoopTraffic                        128                       # Total snoop traffic (Byte)
system.membus.snoopFanout::samples             476751                       # Request fanout histogram (Count)
system.membus.snoopFanout::mean              0.018645                       # Request fanout histogram (Count)
system.membus.snoopFanout::stdev             0.135268                       # Request fanout histogram (Count)
system.membus.snoopFanout::underflows               0      0.00%      0.00% # Request fanout histogram (Count)
system.membus.snoopFanout::0                   467862     98.14%     98.14% # Request fanout histogram (Count)
system.membus.snoopFanout::1                     8889      1.86%    100.00% # Request fanout histogram (Count)
system.membus.snoopFanout::2                        0      0.00%    100.00% # Request fanout histogram (Count)
system.membus.snoopFanout::overflows                0      0.00%    100.00% # Request fanout histogram (Count)
system.membus.snoopFanout::min_value                0                       # Request fanout histogram (Count)
system.membus.snoopFanout::max_value                1                       # Request fanout histogram (Count)
system.membus.snoopFanout::total               476751                       # Request fanout histogram (Count)
system.membus.power_state.pwrStateResidencyTicks::UNDEFINED  44086431145                       # Cumulative time (in ticks) in various power states (Tick)
system.membus.reqLayer2.occupancy         15413722466                       # Layer occupancy (ticks) (Tick)
system.membus.reqLayer2.utilization               0.3                       # Layer utilization (Ratio)
system.membus.respLayer2.occupancy         7776813604                       # Layer occupancy (ticks) (Tick)
system.membus.respLayer2.utilization              0.2                       # Layer utilization (Ratio)
system.membus.respLayer3.occupancy        24579923036                       # Layer occupancy (ticks) (Tick)
system.membus.respLayer3.utilization              0.6                       # Layer utilization (Ratio)
system.membus.snoop_filter.totRequests         953503                       # Total number of requests made to the snoop filter. (Count)
system.membus.snoop_filter.hitSingleRequests       476752                       # Number of requests hitting in the snoop filter with a single holder of the requested data. (Count)
system.membus.snoop_filter.hitMultiRequests         8889                       # Number of requests hitting in the snoop filter with multiple (>1) holders of the requested data. (Count)
system.membus.snoop_filter.totSnoops                0                       # Total number of snoops made to the snoop filter. (Count)
system.membus.snoop_filter.hitSingleSnoops            0                       # Number of snoops hitting in the snoop filter with a single holder of the requested data. (Count)
system.membus.snoop_filter.hitMultiSnoops            0                       # Number of snoops hitting in the snoop filter with multiple (>1) holders of the requested data. (Count)
system.workload.inst.arm                            0                       # number of arm instructions executed (Count)
system.workload.inst.quiesce                        0                       # number of quiesce instructions executed (Count)

---------- End Simulation Statistics   ----------
