
---------- Begin Simulation Statistics ----------
simSeconds                                   1.098993                       # Number of seconds simulated (Second)
simTicks                                 1098992684496                       # Number of ticks simulated (Tick)
finalTick                                1098992684496                       # Number of ticks from beginning of simulation (restored from checkpoints and never reset) (Tick)
simFreq                                  1000000000000                       # The number of ticks per simulated second ((Tick/Second))
hostSeconds                                     70.78                       # Real time elapsed on the host (Second)
hostTickRate                              15526651993                       # The number of ticks simulated per host second (ticks/s) ((Tick/Second))
hostMemory                                    8618268                       # Number of bytes of host memory used (Byte)
simInsts                                     35323569                       # Number of instructions simulated (Count)
simOps                                       77277482                       # Number of ops (including micro ops) simulated (Count)
hostInstRate                                   499053                       # Simulator instruction rate (inst/s) ((Count/Second))
hostOpRate                                    1091780                       # Simulator op (including micro ops) rate (op/s) ((Count/Second))
system.clk_domain.clock                         13333                       # Clock period in ticks (Tick)
system.clk_domain.voltage_domain.voltage            1                       # Voltage in Volts (Volt)
system.cpu.numCycles                         82426512                       # Number of cpu cycles simulated (Cycle)
system.cpu.cpi                               2.333448                       # CPI: cycles per instruction (core level) ((Cycle/Count))
system.cpu.ipc                               0.428550                       # IPC: instructions per cycle (core level) ((Count/Cycle))
system.cpu.numWorkItemsStarted                      0                       # Number of work items this cpu started (Count)
system.cpu.numWorkItemsCompleted                    0                       # Number of work items this cpu completed (Count)
system.cpu.commitStats0.numInsts             35323911                       # Number of instructions committed (thread level) (Count)
system.cpu.commitStats0.numOps               77278008                       # Number of ops (including micro ops) committed (thread level) (Count)
system.cpu.commitStats0.numInstsNotNOP              0                       # Number of instructions committed excluding NOPs or prefetches (Count)
system.cpu.commitStats0.numOpsNotNOP                0                       # Number of Ops (including micro ops) Simulated (Count)
system.cpu.commitStats0.cpi                  2.333448                       # CPI: cycles per instruction (thread level) ((Cycle/Count))
system.cpu.commitStats0.ipc                  0.428550                       # IPC: instructions per cycle (thread level) ((Count/Cycle))
system.cpu.commitStats0.numMemRefs                  0                       # Number of memory references committed (Count)
system.cpu.commitStats0.numFpInsts            2274998                       # Number of float instructions (Count)
system.cpu.commitStats0.numIntInsts          71977915                       # Number of integer instructions (Count)
system.cpu.commitStats0.numLoadInsts          8520649                       # Number of load instructions (Count)
system.cpu.commitStats0.numStoreInsts         8070549                       # Number of store instructions (Count)
system.cpu.commitStats0.numVecInsts                 0                       # Number of vector instructions (Count)
system.cpu.commitStats0.committedInstType::No_OpClass      1225280      1.59%      1.59% # Class of committed instruction. (Count)
system.cpu.commitStats0.committedInstType::IntAlu     57260980     74.10%     75.68% # Class of committed instruction. (Count)
system.cpu.commitStats0.committedInstType::IntMult          152      0.00%     75.68% # Class of committed instruction. (Count)
system.cpu.commitStats0.committedInstType::IntDiv      1188745      1.54%     77.22% # Class of committed instruction. (Count)
system.cpu.commitStats0.committedInstType::FloatAdd       112464      0.15%     77.37% # Class of committed instruction. (Count)
system.cpu.commitStats0.committedInstType::FloatCmp            0      0.00%     77.37% # Class of committed instruction. (Count)
system.cpu.commitStats0.committedInstType::FloatCvt         1232      0.00%     77.37% # Class of committed instruction. (Count)
system.cpu.commitStats0.committedInstType::FloatMult            0      0.00%     77.37% # Class of committed instruction. (Count)
system.cpu.commitStats0.committedInstType::FloatMultAcc            0      0.00%     77.37% # Class of committed instruction. (Count)
system.cpu.commitStats0.committedInstType::FloatDiv            0      0.00%     77.37% # Class of committed instruction. (Count)
system.cpu.commitStats0.committedInstType::FloatMisc            0      0.00%     77.37% # Class of committed instruction. (Count)
system.cpu.commitStats0.committedInstType::FloatSqrt            0      0.00%     77.37% # Class of committed instruction. (Count)
system.cpu.commitStats0.committedInstType::SimdAdd        44054      0.06%     77.43% # Class of committed instruction. (Count)
system.cpu.commitStats0.committedInstType::SimdAddAcc            0      0.00%     77.43% # Class of committed instruction. (Count)
system.cpu.commitStats0.committedInstType::SimdAlu       450643      0.58%     78.01% # Class of committed instruction. (Count)
system.cpu.commitStats0.committedInstType::SimdCmp          174      0.00%     78.01% # Class of committed instruction. (Count)
system.cpu.commitStats0.committedInstType::SimdCvt       144706      0.19%     78.20% # Class of committed instruction. (Count)
system.cpu.commitStats0.committedInstType::SimdMisc       240380      0.31%     78.51% # Class of committed instruction. (Count)
system.cpu.commitStats0.committedInstType::SimdMult            0      0.00%     78.51% # Class of committed instruction. (Count)
system.cpu.commitStats0.committedInstType::SimdMultAcc            0      0.00%     78.51% # Class of committed instruction. (Count)
system.cpu.commitStats0.committedInstType::SimdMatMultAcc            0      0.00%     78.51% # Class of committed instruction. (Count)
system.cpu.commitStats0.committedInstType::SimdShift        17604      0.02%     78.53% # Class of committed instruction. (Count)
system.cpu.commitStats0.committedInstType::SimdShiftAcc            0      0.00%     78.53% # Class of committed instruction. (Count)
system.cpu.commitStats0.committedInstType::SimdDiv            0      0.00%     78.53% # Class of committed instruction. (Count)
system.cpu.commitStats0.committedInstType::SimdSqrt            0      0.00%     78.53% # Class of committed instruction. (Count)
system.cpu.commitStats0.committedInstType::SimdFloatAdd           57      0.00%     78.53% # Class of committed instruction. (Count)
system.cpu.commitStats0.committedInstType::SimdFloatAlu            0      0.00%     78.53% # Class of committed instruction. (Count)
system.cpu.commitStats0.committedInstType::SimdFloatCmp            0      0.00%     78.53% # Class of committed instruction. (Count)
system.cpu.commitStats0.committedInstType::SimdFloatCvt          282      0.00%     78.53% # Class of committed instruction. (Count)
system.cpu.commitStats0.committedInstType::SimdFloatDiv           29      0.00%     78.53% # Class of committed instruction. (Count)
system.cpu.commitStats0.committedInstType::SimdFloatMisc            0      0.00%     78.53% # Class of committed instruction. (Count)
system.cpu.commitStats0.committedInstType::SimdFloatMult           28      0.00%     78.53% # Class of committed instruction. (Count)
system.cpu.commitStats0.committedInstType::SimdFloatMultAcc            0      0.00%     78.53% # Class of committed instruction. (Count)
system.cpu.commitStats0.committedInstType::SimdFloatMatMultAcc            0      0.00%     78.53% # Class of committed instruction. (Count)
system.cpu.commitStats0.committedInstType::SimdFloatSqrt            0      0.00%     78.53% # Class of committed instruction. (Count)
system.cpu.commitStats0.committedInstType::SimdReduceAdd            0      0.00%     78.53% # Class of committed instruction. (Count)
system.cpu.commitStats0.committedInstType::SimdReduceAlu            0      0.00%     78.53% # Class of committed instruction. (Count)
system.cpu.commitStats0.committedInstType::SimdReduceCmp            0      0.00%     78.53% # Class of committed instruction. (Count)
system.cpu.commitStats0.committedInstType::SimdFloatReduceAdd            0      0.00%     78.53% # Class of committed instruction. (Count)
system.cpu.commitStats0.committedInstType::SimdFloatReduceCmp            0      0.00%     78.53% # Class of committed instruction. (Count)
system.cpu.commitStats0.committedInstType::SimdAes            0      0.00%     78.53% # Class of committed instruction. (Count)
system.cpu.commitStats0.committedInstType::SimdAesMix            0      0.00%     78.53% # Class of committed instruction. (Count)
system.cpu.commitStats0.committedInstType::SimdSha1Hash            0      0.00%     78.53% # Class of committed instruction. (Count)
system.cpu.commitStats0.committedInstType::SimdSha1Hash2            0      0.00%     78.53% # Class of committed instruction. (Count)
system.cpu.commitStats0.committedInstType::SimdSha256Hash            0      0.00%     78.53% # Class of committed instruction. (Count)
system.cpu.commitStats0.committedInstType::SimdSha256Hash2            0      0.00%     78.53% # Class of committed instruction. (Count)
system.cpu.commitStats0.committedInstType::SimdShaSigma2            0      0.00%     78.53% # Class of committed instruction. (Count)
system.cpu.commitStats0.committedInstType::SimdShaSigma3            0      0.00%     78.53% # Class of committed instruction. (Count)
system.cpu.commitStats0.committedInstType::SimdPredAlu            0      0.00%     78.53% # Class of committed instruction. (Count)
system.cpu.commitStats0.committedInstType::Matrix            0      0.00%     78.53% # Class of committed instruction. (Count)
system.cpu.commitStats0.committedInstType::MatrixMov            0      0.00%     78.53% # Class of committed instruction. (Count)
system.cpu.commitStats0.committedInstType::MatrixOP            0      0.00%     78.53% # Class of committed instruction. (Count)
system.cpu.commitStats0.committedInstType::MemRead      8129917     10.52%     89.05% # Class of committed instruction. (Count)
system.cpu.commitStats0.committedInstType::MemWrite      7360112      9.52%     98.58% # Class of committed instruction. (Count)
system.cpu.commitStats0.committedInstType::FloatMemRead       390732      0.51%     99.08% # Class of committed instruction. (Count)
system.cpu.commitStats0.committedInstType::FloatMemWrite       710437      0.92%    100.00% # Class of committed instruction. (Count)
system.cpu.commitStats0.committedInstType::IprAccess            0      0.00%    100.00% # Class of committed instruction. (Count)
system.cpu.commitStats0.committedInstType::InstPrefetch            0      0.00%    100.00% # Class of committed instruction. (Count)
system.cpu.commitStats0.committedInstType::SimdUnitStrideLoad            0      0.00%    100.00% # Class of committed instruction. (Count)
system.cpu.commitStats0.committedInstType::SimdUnitStrideStore            0      0.00%    100.00% # Class of committed instruction. (Count)
system.cpu.commitStats0.committedInstType::SimdUnitStrideMaskLoad            0      0.00%    100.00% # Class of committed instruction. (Count)
system.cpu.commitStats0.committedInstType::SimdUnitStrideMaskStore            0      0.00%    100.00% # Class of committed instruction. (Count)
system.cpu.commitStats0.committedInstType::SimdStridedLoad            0      0.00%    100.00% # Class of committed instruction. (Count)
system.cpu.commitStats0.committedInstType::SimdStridedStore            0      0.00%    100.00% # Class of committed instruction. (Count)
system.cpu.commitStats0.committedInstType::SimdIndexedLoad            0      0.00%    100.00% # Class of committed instruction. (Count)
system.cpu.commitStats0.committedInstType::SimdIndexedStore            0      0.00%    100.00% # Class of committed instruction. (Count)
system.cpu.commitStats0.committedInstType::SimdWholeRegisterLoad            0      0.00%    100.00% # Class of committed instruction. (Count)
system.cpu.commitStats0.committedInstType::SimdWholeRegisterStore            0      0.00%    100.00% # Class of committed instruction. (Count)
system.cpu.commitStats0.committedInstType::SimdUnitStrideFaultOnlyFirstLoad            0      0.00%    100.00% # Class of committed instruction. (Count)
system.cpu.commitStats0.committedInstType::SimdUnitStrideSegmentedLoad            0      0.00%    100.00% # Class of committed instruction. (Count)
system.cpu.commitStats0.committedInstType::SimdUnitStrideSegmentedStore            0      0.00%    100.00% # Class of committed instruction. (Count)
system.cpu.commitStats0.committedInstType::SimdExt            0      0.00%    100.00% # Class of committed instruction. (Count)
system.cpu.commitStats0.committedInstType::SimdFloatExt            0      0.00%    100.00% # Class of committed instruction. (Count)
system.cpu.commitStats0.committedInstType::SimdConfig            0      0.00%    100.00% # Class of committed instruction. (Count)
system.cpu.commitStats0.committedInstType::total     77278008                       # Class of committed instruction. (Count)
system.cpu.commitStats0.committedControl::IsControl      9412600                       # Class of control type instructions committed (Count)
system.cpu.commitStats0.committedControl::IsDirectControl      8589576                       # Class of control type instructions committed (Count)
system.cpu.commitStats0.committedControl::IsIndirectControl       821275                       # Class of control type instructions committed (Count)
system.cpu.commitStats0.committedControl::IsCondControl      7808639                       # Class of control type instructions committed (Count)
system.cpu.commitStats0.committedControl::IsUncondControl      1602212                       # Class of control type instructions committed (Count)
system.cpu.commitStats0.committedControl::IsCall       477282                       # Class of control type instructions committed (Count)
system.cpu.commitStats0.committedControl::IsReturn       477277                       # Class of control type instructions committed (Count)
system.cpu.exec_context.thread_0.numMatAluAccesses            0                       # Number of matrix alu accesses (Count)
system.cpu.exec_context.thread_0.numCallsReturns       954559                       # Number of times a function call or return occured (Count)
system.cpu.exec_context.thread_0.numMatInsts            0                       # Number of matrix instructions (Count)
system.cpu.exec_context.thread_0.numIdleCycles            0                       # Number of idle cycles (Cycle)
system.cpu.exec_context.thread_0.numBusyCycles     82426512                       # Number of busy cycles (Cycle)
system.cpu.exec_context.thread_0.notIdleFraction            1                       # Percentage of non-idle cycles (Ratio)
system.cpu.exec_context.thread_0.idleFraction            0                       # Percentage of idle cycles (Ratio)
system.cpu.executeStats0.numInsts                   0                       # Number of executed instructions (Count)
system.cpu.executeStats0.numNop                     0                       # Number of nop insts executed (Count)
system.cpu.executeStats0.numBranches                0                       # Number of branches executed (Count)
system.cpu.executeStats0.numLoadInsts               0                       # Number of load instructions executed (Count)
system.cpu.executeStats0.numStoreInsts       16591198                       # Number of stores executed (Count)
system.cpu.executeStats0.instRate                   0                       # Inst execution rate ((Count/Cycle))
system.cpu.executeStats0.numFpAluAccesses      2274998                       # Number of float alu accesses (Count)
system.cpu.executeStats0.numFpRegReads        2792735                       # Number of times the floating registers were read (Count)
system.cpu.executeStats0.numFpRegWrites       1437278                       # Number of times the floating registers were written (Count)
system.cpu.executeStats0.numIntAluAccesses     71977915                       # Number of integer alu accesses (Count)
system.cpu.executeStats0.numIntRegReads      97661143                       # Number of times the integer registers were read (Count)
system.cpu.executeStats0.numIntRegWrites     54447604                       # Number of times the integer registers were written (Count)
system.cpu.executeStats0.numMemRefs          16591198                       # Number of memory refs (Count)
system.cpu.executeStats0.numMiscRegReads     29432842                       # Number of times the Misc registers were read (Count)
system.cpu.executeStats0.numMiscRegWrites          693                       # Number of times the Misc registers were written (Count)
system.cpu.executeStats0.numVecAluAccesses            0                       # Number of vector alu accesses (Count)
system.cpu.executeStats0.numDiscardedOps            0                       # Number of ops (including micro ops) which were discarded before commit (Count)
system.cpu.fetchStats0.numInsts              35323911                       # Number of instructions fetched (thread level) (Count)
system.cpu.fetchStats0.numOps                77278008                       # Number of ops (including micro ops) fetched (thread level) (Count)
system.cpu.fetchStats0.fetchRate             0.428550                       # Number of inst fetches per cycle ((Count/Cycle))
system.cpu.fetchStats0.numBranches            9412600                       # Number of branches fetched (Count)
system.cpu.fetchStats0.branchRate            0.114194                       # Number of branch fetches per cycle (Ratio)
system.cpu.fetchStats0.numFetchSuspends             0                       # Number of times Execute suspended instruction fetching (Count)
system.cpu.interrupts.clk_domain.clock         213328                       # Clock period in ticks (Tick)
system.cpu.l1d.demandHits::cpu.data          16047183                       # number of demand (read+write) hits (Count)
system.cpu.l1d.demandHits::total             16047183                       # number of demand (read+write) hits (Count)
system.cpu.l1d.overallHits::cpu.data         16047183                       # number of overall hits (Count)
system.cpu.l1d.overallHits::total            16047183                       # number of overall hits (Count)
system.cpu.l1d.demandMisses::cpu.data          548168                       # number of demand (read+write) misses (Count)
system.cpu.l1d.demandMisses::total             548168                       # number of demand (read+write) misses (Count)
system.cpu.l1d.overallMisses::cpu.data         548168                       # number of overall misses (Count)
system.cpu.l1d.overallMisses::total            548168                       # number of overall misses (Count)
system.cpu.l1d.demandMissLatency::cpu.data 115618216139                       # number of demand (read+write) miss ticks (Tick)
system.cpu.l1d.demandMissLatency::total  115618216139                       # number of demand (read+write) miss ticks (Tick)
system.cpu.l1d.overallMissLatency::cpu.data 115618216139                       # number of overall miss ticks (Tick)
system.cpu.l1d.overallMissLatency::total 115618216139                       # number of overall miss ticks (Tick)
system.cpu.l1d.demandAccesses::cpu.data      16595351                       # number of demand (read+write) accesses (Count)
system.cpu.l1d.demandAccesses::total         16595351                       # number of demand (read+write) accesses (Count)
system.cpu.l1d.overallAccesses::cpu.data     16595351                       # number of overall (read+write) accesses (Count)
system.cpu.l1d.overallAccesses::total        16595351                       # number of overall (read+write) accesses (Count)
system.cpu.l1d.demandMissRate::cpu.data      0.033031                       # miss rate for demand accesses (Ratio)
system.cpu.l1d.demandMissRate::total         0.033031                       # miss rate for demand accesses (Ratio)
system.cpu.l1d.overallMissRate::cpu.data     0.033031                       # miss rate for overall accesses (Ratio)
system.cpu.l1d.overallMissRate::total        0.033031                       # miss rate for overall accesses (Ratio)
system.cpu.l1d.demandAvgMissLatency::cpu.data 210917.485404                       # average overall miss latency in ticks ((Tick/Count))
system.cpu.l1d.demandAvgMissLatency::total 210917.485404                       # average overall miss latency in ticks ((Tick/Count))
system.cpu.l1d.overallAvgMissLatency::cpu.data 210917.485404                       # average overall miss latency ((Tick/Count))
system.cpu.l1d.overallAvgMissLatency::total 210917.485404                       # average overall miss latency ((Tick/Count))
system.cpu.l1d.blockedCycles::no_mshrs              0                       # number of cycles access was blocked (Cycle)
system.cpu.l1d.blockedCycles::no_targets            0                       # number of cycles access was blocked (Cycle)
system.cpu.l1d.blockedCauses::no_mshrs              0                       # number of times access was blocked (Count)
system.cpu.l1d.blockedCauses::no_targets            0                       # number of times access was blocked (Count)
system.cpu.l1d.avgBlocked::no_mshrs               nan                       # average number of cycles each access was blocked ((Cycle/Count))
system.cpu.l1d.avgBlocked::no_targets             nan                       # average number of cycles each access was blocked ((Cycle/Count))
system.cpu.l1d.writebacks::writebacks          241156                       # number of writebacks (Count)
system.cpu.l1d.writebacks::total               241156                       # number of writebacks (Count)
system.cpu.l1d.demandMshrHits::cpu.data             6                       # number of demand (read+write) MSHR hits (Count)
system.cpu.l1d.demandMshrHits::total                6                       # number of demand (read+write) MSHR hits (Count)
system.cpu.l1d.overallMshrHits::cpu.data            6                       # number of overall MSHR hits (Count)
system.cpu.l1d.overallMshrHits::total               6                       # number of overall MSHR hits (Count)
system.cpu.l1d.demandMshrMisses::cpu.data       548162                       # number of demand (read+write) MSHR misses (Count)
system.cpu.l1d.demandMshrMisses::total         548162                       # number of demand (read+write) MSHR misses (Count)
system.cpu.l1d.overallMshrMisses::cpu.data       548162                       # number of overall MSHR misses (Count)
system.cpu.l1d.overallMshrMisses::cpu.l1d.prefetcher        72204                       # number of overall MSHR misses (Count)
system.cpu.l1d.overallMshrMisses::total        620366                       # number of overall MSHR misses (Count)
system.cpu.l1d.demandMshrMissLatency::cpu.data 108308972208                       # number of demand (read+write) MSHR miss ticks (Tick)
system.cpu.l1d.demandMshrMissLatency::total 108308972208                       # number of demand (read+write) MSHR miss ticks (Tick)
system.cpu.l1d.overallMshrMissLatency::cpu.data 108308972208                       # number of overall MSHR miss ticks (Tick)
system.cpu.l1d.overallMshrMissLatency::cpu.l1d.prefetcher  18384235878                       # number of overall MSHR miss ticks (Tick)
system.cpu.l1d.overallMshrMissLatency::total 126693208086                       # number of overall MSHR miss ticks (Tick)
system.cpu.l1d.demandMshrMissRate::cpu.data     0.033031                       # mshr miss ratio for demand accesses (Ratio)
system.cpu.l1d.demandMshrMissRate::total     0.033031                       # mshr miss ratio for demand accesses (Ratio)
system.cpu.l1d.overallMshrMissRate::cpu.data     0.033031                       # mshr miss ratio for overall accesses (Ratio)
system.cpu.l1d.overallMshrMissRate::cpu.l1d.prefetcher          inf                       # mshr miss ratio for overall accesses (Ratio)
system.cpu.l1d.overallMshrMissRate::total     0.037382                       # mshr miss ratio for overall accesses (Ratio)
system.cpu.l1d.demandAvgMshrMissLatency::cpu.data 197585.699498                       # average overall mshr miss latency ((Tick/Count))
system.cpu.l1d.demandAvgMshrMissLatency::total 197585.699498                       # average overall mshr miss latency ((Tick/Count))
system.cpu.l1d.overallAvgMshrMissLatency::cpu.data 197585.699498                       # average overall mshr miss latency ((Tick/Count))
system.cpu.l1d.overallAvgMshrMissLatency::cpu.l1d.prefetcher 254615.199684                       # average overall mshr miss latency ((Tick/Count))
system.cpu.l1d.overallAvgMshrMissLatency::total 204223.326369                       # average overall mshr miss latency ((Tick/Count))
system.cpu.l1d.replacements                    620393                       # number of replacements (Count)
system.cpu.l1d.HardPFReq.mshrMisses::cpu.l1d.prefetcher        72204                       # number of HardPFReq MSHR misses (Count)
system.cpu.l1d.HardPFReq.mshrMisses::total        72204                       # number of HardPFReq MSHR misses (Count)
system.cpu.l1d.HardPFReq.mshrMissLatency::cpu.l1d.prefetcher  18384235878                       # number of HardPFReq MSHR miss ticks (Tick)
system.cpu.l1d.HardPFReq.mshrMissLatency::total  18384235878                       # number of HardPFReq MSHR miss ticks (Tick)
system.cpu.l1d.HardPFReq.mshrMissRate::cpu.l1d.prefetcher          inf                       # mshr miss rate for HardPFReq accesses (Ratio)
system.cpu.l1d.HardPFReq.mshrMissRate::total          inf                       # mshr miss rate for HardPFReq accesses (Ratio)
system.cpu.l1d.HardPFReq.avgMshrMissLatency::cpu.l1d.prefetcher 254615.199684                       # average HardPFReq mshr miss latency ((Tick/Count))
system.cpu.l1d.HardPFReq.avgMshrMissLatency::total 254615.199684                       # average HardPFReq mshr miss latency ((Tick/Count))
system.cpu.l1d.LockedRMWReadReq.hits::cpu.data          676                       # number of LockedRMWReadReq hits (Count)
system.cpu.l1d.LockedRMWReadReq.hits::total          676                       # number of LockedRMWReadReq hits (Count)
system.cpu.l1d.LockedRMWReadReq.misses::cpu.data           91                       # number of LockedRMWReadReq misses (Count)
system.cpu.l1d.LockedRMWReadReq.misses::total           91                       # number of LockedRMWReadReq misses (Count)
system.cpu.l1d.LockedRMWReadReq.missLatency::cpu.data     19199520                       # number of LockedRMWReadReq miss ticks (Tick)
system.cpu.l1d.LockedRMWReadReq.missLatency::total     19199520                       # number of LockedRMWReadReq miss ticks (Tick)
system.cpu.l1d.LockedRMWReadReq.accesses::cpu.data          767                       # number of LockedRMWReadReq accesses(hits+misses) (Count)
system.cpu.l1d.LockedRMWReadReq.accesses::total          767                       # number of LockedRMWReadReq accesses(hits+misses) (Count)
system.cpu.l1d.LockedRMWReadReq.missRate::cpu.data     0.118644                       # miss rate for LockedRMWReadReq accesses (Ratio)
system.cpu.l1d.LockedRMWReadReq.missRate::total     0.118644                       # miss rate for LockedRMWReadReq accesses (Ratio)
system.cpu.l1d.LockedRMWReadReq.avgMissLatency::cpu.data 210983.736264                       # average LockedRMWReadReq miss latency ((Tick/Count))
system.cpu.l1d.LockedRMWReadReq.avgMissLatency::total 210983.736264                       # average LockedRMWReadReq miss latency ((Tick/Count))
system.cpu.l1d.LockedRMWReadReq.mshrMisses::cpu.data           91                       # number of LockedRMWReadReq MSHR misses (Count)
system.cpu.l1d.LockedRMWReadReq.mshrMisses::total           91                       # number of LockedRMWReadReq MSHR misses (Count)
system.cpu.l1d.LockedRMWReadReq.mshrMissLatency::cpu.data     46198845                       # number of LockedRMWReadReq MSHR miss ticks (Tick)
system.cpu.l1d.LockedRMWReadReq.mshrMissLatency::total     46198845                       # number of LockedRMWReadReq MSHR miss ticks (Tick)
system.cpu.l1d.LockedRMWReadReq.mshrMissRate::cpu.data     0.118644                       # mshr miss rate for LockedRMWReadReq accesses (Ratio)
system.cpu.l1d.LockedRMWReadReq.mshrMissRate::total     0.118644                       # mshr miss rate for LockedRMWReadReq accesses (Ratio)
system.cpu.l1d.LockedRMWReadReq.avgMshrMissLatency::cpu.data 507679.615385                       # average LockedRMWReadReq mshr miss latency ((Tick/Count))
system.cpu.l1d.LockedRMWReadReq.avgMshrMissLatency::total 507679.615385                       # average LockedRMWReadReq mshr miss latency ((Tick/Count))
system.cpu.l1d.LockedRMWWriteReq.hits::cpu.data          767                       # number of LockedRMWWriteReq hits (Count)
system.cpu.l1d.LockedRMWWriteReq.hits::total          767                       # number of LockedRMWWriteReq hits (Count)
system.cpu.l1d.LockedRMWWriteReq.accesses::cpu.data          767                       # number of LockedRMWWriteReq accesses(hits+misses) (Count)
system.cpu.l1d.LockedRMWWriteReq.accesses::total          767                       # number of LockedRMWWriteReq accesses(hits+misses) (Count)
system.cpu.l1d.ReadReq.hits::cpu.data         8052627                       # number of ReadReq hits (Count)
system.cpu.l1d.ReadReq.hits::total            8052627                       # number of ReadReq hits (Count)
system.cpu.l1d.ReadReq.misses::cpu.data        473024                       # number of ReadReq misses (Count)
system.cpu.l1d.ReadReq.misses::total           473024                       # number of ReadReq misses (Count)
system.cpu.l1d.ReadReq.missLatency::cpu.data 100927143425                       # number of ReadReq miss ticks (Tick)
system.cpu.l1d.ReadReq.missLatency::total 100927143425                       # number of ReadReq miss ticks (Tick)
system.cpu.l1d.ReadReq.accesses::cpu.data      8525651                       # number of ReadReq accesses(hits+misses) (Count)
system.cpu.l1d.ReadReq.accesses::total        8525651                       # number of ReadReq accesses(hits+misses) (Count)
system.cpu.l1d.ReadReq.missRate::cpu.data     0.055482                       # miss rate for ReadReq accesses (Ratio)
system.cpu.l1d.ReadReq.missRate::total       0.055482                       # miss rate for ReadReq accesses (Ratio)
system.cpu.l1d.ReadReq.avgMissLatency::cpu.data 213365.798406                       # average ReadReq miss latency ((Tick/Count))
system.cpu.l1d.ReadReq.avgMissLatency::total 213365.798406                       # average ReadReq miss latency ((Tick/Count))
system.cpu.l1d.ReadReq.mshrHits::cpu.data            1                       # number of ReadReq MSHR hits (Count)
system.cpu.l1d.ReadReq.mshrHits::total              1                       # number of ReadReq MSHR hits (Count)
system.cpu.l1d.ReadReq.mshrMisses::cpu.data       473023                       # number of ReadReq MSHR misses (Count)
system.cpu.l1d.ReadReq.mshrMisses::total       473023                       # number of ReadReq MSHR misses (Count)
system.cpu.l1d.ReadReq.mshrMissLatency::cpu.data  94620234435                       # number of ReadReq MSHR miss ticks (Tick)
system.cpu.l1d.ReadReq.mshrMissLatency::total  94620234435                       # number of ReadReq MSHR miss ticks (Tick)
system.cpu.l1d.ReadReq.mshrMissRate::cpu.data     0.055482                       # mshr miss rate for ReadReq accesses (Ratio)
system.cpu.l1d.ReadReq.mshrMissRate::total     0.055482                       # mshr miss rate for ReadReq accesses (Ratio)
system.cpu.l1d.ReadReq.avgMshrMissLatency::cpu.data 200033.052167                       # average ReadReq mshr miss latency ((Tick/Count))
system.cpu.l1d.ReadReq.avgMshrMissLatency::total 200033.052167                       # average ReadReq mshr miss latency ((Tick/Count))
system.cpu.l1d.WriteReq.hits::cpu.data        7994556                       # number of WriteReq hits (Count)
system.cpu.l1d.WriteReq.hits::total           7994556                       # number of WriteReq hits (Count)
system.cpu.l1d.WriteReq.misses::cpu.data        75144                       # number of WriteReq misses (Count)
system.cpu.l1d.WriteReq.misses::total           75144                       # number of WriteReq misses (Count)
system.cpu.l1d.WriteReq.missLatency::cpu.data  14691072714                       # number of WriteReq miss ticks (Tick)
system.cpu.l1d.WriteReq.missLatency::total  14691072714                       # number of WriteReq miss ticks (Tick)
system.cpu.l1d.WriteReq.accesses::cpu.data      8069700                       # number of WriteReq accesses(hits+misses) (Count)
system.cpu.l1d.WriteReq.accesses::total       8069700                       # number of WriteReq accesses(hits+misses) (Count)
system.cpu.l1d.WriteReq.missRate::cpu.data     0.009312                       # miss rate for WriteReq accesses (Ratio)
system.cpu.l1d.WriteReq.missRate::total      0.009312                       # miss rate for WriteReq accesses (Ratio)
system.cpu.l1d.WriteReq.avgMissLatency::cpu.data 195505.598770                       # average WriteReq miss latency ((Tick/Count))
system.cpu.l1d.WriteReq.avgMissLatency::total 195505.598770                       # average WriteReq miss latency ((Tick/Count))
system.cpu.l1d.WriteReq.mshrHits::cpu.data            5                       # number of WriteReq MSHR hits (Count)
system.cpu.l1d.WriteReq.mshrHits::total             5                       # number of WriteReq MSHR hits (Count)
system.cpu.l1d.WriteReq.mshrMisses::cpu.data        75139                       # number of WriteReq MSHR misses (Count)
system.cpu.l1d.WriteReq.mshrMisses::total        75139                       # number of WriteReq MSHR misses (Count)
system.cpu.l1d.WriteReq.mshrMissLatency::cpu.data  13688737773                       # number of WriteReq MSHR miss ticks (Tick)
system.cpu.l1d.WriteReq.mshrMissLatency::total  13688737773                       # number of WriteReq MSHR miss ticks (Tick)
system.cpu.l1d.WriteReq.mshrMissRate::cpu.data     0.009311                       # mshr miss rate for WriteReq accesses (Ratio)
system.cpu.l1d.WriteReq.mshrMissRate::total     0.009311                       # mshr miss rate for WriteReq accesses (Ratio)
system.cpu.l1d.WriteReq.avgMshrMissLatency::cpu.data 182178.865476                       # average WriteReq mshr miss latency ((Tick/Count))
system.cpu.l1d.WriteReq.avgMshrMissLatency::total 182178.865476                       # average WriteReq mshr miss latency ((Tick/Count))
system.cpu.l1d.power_state.pwrStateResidencyTicks::UNDEFINED 1098992684496                       # Cumulative time (in ticks) in various power states (Tick)
system.cpu.l1d.prefetcher.demandMshrMisses       548162                       # demands not covered by prefetchs (Count)
system.cpu.l1d.prefetcher.pfIssued             206210                       # number of hwpf issued (Count)
system.cpu.l1d.prefetcher.pfUnused              23811                       # number of HardPF blocks evicted w/o reference (Count)
system.cpu.l1d.prefetcher.pfUseful              48387                       # number of useful prefetch (Count)
system.cpu.l1d.prefetcher.pfUsefulButMiss            0                       # number of hit on prefetch but cache block is not in an usable state (Count)
system.cpu.l1d.prefetcher.accuracy           0.234649                       # accuracy of the prefetcher (Count)
system.cpu.l1d.prefetcher.coverage           0.081112                       # coverage brought by this prefetcher (Count)
system.cpu.l1d.prefetcher.pfHitInCache         127576                       # number of prefetches hitting in cache (Count)
system.cpu.l1d.prefetcher.pfHitInMSHR            6427                       # number of prefetches hitting in a MSHR (Count)
system.cpu.l1d.prefetcher.pfHitInWB                 3                       # number of prefetches hit in the Write Buffer (Count)
system.cpu.l1d.prefetcher.pfLate               134006                       # number of late prefetches (hitting in cache, MSHR or WB) (Count)
system.cpu.l1d.prefetcher.pfIdentified         206210                       # number of prefetch candidates identified (Count)
system.cpu.l1d.prefetcher.pfBufferHit               0                       # number of redundant prefetches already in prefetch queue (Count)
system.cpu.l1d.prefetcher.pfInCache                 0                       # number of redundant prefetches already in cache/mshr dropped (Count)
system.cpu.l1d.prefetcher.pfRemovedDemand            0                       # number of prefetches dropped due to a demand for the same address (Count)
system.cpu.l1d.prefetcher.pfRemovedFull             0                       # number of prefetches dropped due to prefetch queue size (Count)
system.cpu.l1d.prefetcher.pfSpanPage            20066                       # number of prefetches that crossed the page (Count)
system.cpu.l1d.prefetcher.pfUsefulSpanPage        11154                       # number of prefetches that is useful and crossed the page (Count)
system.cpu.l1d.prefetcher.power_state.pwrStateResidencyTicks::UNDEFINED 1098992684496                       # Cumulative time (in ticks) in various power states (Tick)
system.cpu.l1d.tags.tagsInUse               63.998893                       # Average ticks per tags in use ((Tick/Count))
system.cpu.l1d.tags.totalRefs                16668661                       # Total number of references to valid blocks. (Count)
system.cpu.l1d.tags.sampledRefs                620393                       # Sample count of references to valid blocks. (Count)
system.cpu.l1d.tags.avgRefs                 26.867906                       # Average number of references to valid blocks. ((Count/Count))
system.cpu.l1d.tags.warmupTick                 479988                       # The tick when the warmup percentage was hit. (Tick)
system.cpu.l1d.tags.occupancies::cpu.data    52.306580                       # Average occupied blocks per tick, per requestor ((Count/Tick))
system.cpu.l1d.tags.occupancies::cpu.l1d.prefetcher    11.692313                       # Average occupied blocks per tick, per requestor ((Count/Tick))
system.cpu.l1d.tags.avgOccs::cpu.data        0.817290                       # Average percentage of cache occupancy ((Ratio/Tick))
system.cpu.l1d.tags.avgOccs::cpu.l1d.prefetcher     0.182692                       # Average percentage of cache occupancy ((Ratio/Tick))
system.cpu.l1d.tags.avgOccs::total           0.999983                       # Average percentage of cache occupancy ((Ratio/Tick))
system.cpu.l1d.tags.occupanciesTaskId::1024           64                       # Occupied blocks per task id (Count)
system.cpu.l1d.tags.ageTaskId_1024::0              13                       # Occupied blocks per task id, per block age (Count)
system.cpu.l1d.tags.ageTaskId_1024::1              51                       # Occupied blocks per task id, per block age (Count)
system.cpu.l1d.tags.ratioOccsTaskId::1024            1                       # Ratio of occupied blocks and all blocks, per task id (Ratio)
system.cpu.l1d.tags.tagAccesses              33814227                       # Number of tag accesses (Count)
system.cpu.l1d.tags.dataAccesses             33814227                       # Number of data accesses (Count)
system.cpu.l1d.tags.power_state.pwrStateResidencyTicks::UNDEFINED 1098992684496                       # Cumulative time (in ticks) in various power states (Tick)
system.cpu.l1i.demandHits::cpu.inst          47031189                       # number of demand (read+write) hits (Count)
system.cpu.l1i.demandHits::total             47031189                       # number of demand (read+write) hits (Count)
system.cpu.l1i.overallHits::cpu.inst         47031189                       # number of overall hits (Count)
system.cpu.l1i.overallHits::total            47031189                       # number of overall hits (Count)
system.cpu.l1i.demandMisses::cpu.inst          569855                       # number of demand (read+write) misses (Count)
system.cpu.l1i.demandMisses::total             569855                       # number of demand (read+write) misses (Count)
system.cpu.l1i.overallMisses::cpu.inst         569855                       # number of overall misses (Count)
system.cpu.l1i.overallMisses::total            569855                       # number of overall misses (Count)
system.cpu.l1i.demandMissLatency::cpu.inst 121037093997                       # number of demand (read+write) miss ticks (Tick)
system.cpu.l1i.demandMissLatency::total  121037093997                       # number of demand (read+write) miss ticks (Tick)
system.cpu.l1i.overallMissLatency::cpu.inst 121037093997                       # number of overall miss ticks (Tick)
system.cpu.l1i.overallMissLatency::total 121037093997                       # number of overall miss ticks (Tick)
system.cpu.l1i.demandAccesses::cpu.inst      47601044                       # number of demand (read+write) accesses (Count)
system.cpu.l1i.demandAccesses::total         47601044                       # number of demand (read+write) accesses (Count)
system.cpu.l1i.overallAccesses::cpu.inst     47601044                       # number of overall (read+write) accesses (Count)
system.cpu.l1i.overallAccesses::total        47601044                       # number of overall (read+write) accesses (Count)
system.cpu.l1i.demandMissRate::cpu.inst      0.011971                       # miss rate for demand accesses (Ratio)
system.cpu.l1i.demandMissRate::total         0.011971                       # miss rate for demand accesses (Ratio)
system.cpu.l1i.overallMissRate::cpu.inst     0.011971                       # miss rate for overall accesses (Ratio)
system.cpu.l1i.overallMissRate::total        0.011971                       # miss rate for overall accesses (Ratio)
system.cpu.l1i.demandAvgMissLatency::cpu.inst 212399.810473                       # average overall miss latency in ticks ((Tick/Count))
system.cpu.l1i.demandAvgMissLatency::total 212399.810473                       # average overall miss latency in ticks ((Tick/Count))
system.cpu.l1i.overallAvgMissLatency::cpu.inst 212399.810473                       # average overall miss latency ((Tick/Count))
system.cpu.l1i.overallAvgMissLatency::total 212399.810473                       # average overall miss latency ((Tick/Count))
system.cpu.l1i.blockedCycles::no_mshrs              0                       # number of cycles access was blocked (Cycle)
system.cpu.l1i.blockedCycles::no_targets            0                       # number of cycles access was blocked (Cycle)
system.cpu.l1i.blockedCauses::no_mshrs              0                       # number of times access was blocked (Count)
system.cpu.l1i.blockedCauses::no_targets            0                       # number of times access was blocked (Count)
system.cpu.l1i.avgBlocked::no_mshrs               nan                       # average number of cycles each access was blocked ((Cycle/Count))
system.cpu.l1i.avgBlocked::no_targets             nan                       # average number of cycles each access was blocked ((Cycle/Count))
system.cpu.l1i.demandMshrMisses::cpu.inst       569855                       # number of demand (read+write) MSHR misses (Count)
system.cpu.l1i.demandMshrMisses::total         569855                       # number of demand (read+write) MSHR misses (Count)
system.cpu.l1i.overallMshrMisses::cpu.inst       569855                       # number of overall MSHR misses (Count)
system.cpu.l1i.overallMshrMisses::total        569855                       # number of overall MSHR misses (Count)
system.cpu.l1i.demandMshrMissLatency::cpu.inst 113439217282                       # number of demand (read+write) MSHR miss ticks (Tick)
system.cpu.l1i.demandMshrMissLatency::total 113439217282                       # number of demand (read+write) MSHR miss ticks (Tick)
system.cpu.l1i.overallMshrMissLatency::cpu.inst 113439217282                       # number of overall MSHR miss ticks (Tick)
system.cpu.l1i.overallMshrMissLatency::total 113439217282                       # number of overall MSHR miss ticks (Tick)
system.cpu.l1i.demandMshrMissRate::cpu.inst     0.011971                       # mshr miss ratio for demand accesses (Ratio)
system.cpu.l1i.demandMshrMissRate::total     0.011971                       # mshr miss ratio for demand accesses (Ratio)
system.cpu.l1i.overallMshrMissRate::cpu.inst     0.011971                       # mshr miss ratio for overall accesses (Ratio)
system.cpu.l1i.overallMshrMissRate::total     0.011971                       # mshr miss ratio for overall accesses (Ratio)
system.cpu.l1i.demandAvgMshrMissLatency::cpu.inst 199066.810473                       # average overall mshr miss latency ((Tick/Count))
system.cpu.l1i.demandAvgMshrMissLatency::total 199066.810473                       # average overall mshr miss latency ((Tick/Count))
system.cpu.l1i.overallAvgMshrMissLatency::cpu.inst 199066.810473                       # average overall mshr miss latency ((Tick/Count))
system.cpu.l1i.overallAvgMshrMissLatency::total 199066.810473                       # average overall mshr miss latency ((Tick/Count))
system.cpu.l1i.replacements                    569791                       # number of replacements (Count)
system.cpu.l1i.ReadReq.hits::cpu.inst        47031189                       # number of ReadReq hits (Count)
system.cpu.l1i.ReadReq.hits::total           47031189                       # number of ReadReq hits (Count)
system.cpu.l1i.ReadReq.misses::cpu.inst        569855                       # number of ReadReq misses (Count)
system.cpu.l1i.ReadReq.misses::total           569855                       # number of ReadReq misses (Count)
system.cpu.l1i.ReadReq.missLatency::cpu.inst 121037093997                       # number of ReadReq miss ticks (Tick)
system.cpu.l1i.ReadReq.missLatency::total 121037093997                       # number of ReadReq miss ticks (Tick)
system.cpu.l1i.ReadReq.accesses::cpu.inst     47601044                       # number of ReadReq accesses(hits+misses) (Count)
system.cpu.l1i.ReadReq.accesses::total       47601044                       # number of ReadReq accesses(hits+misses) (Count)
system.cpu.l1i.ReadReq.missRate::cpu.inst     0.011971                       # miss rate for ReadReq accesses (Ratio)
system.cpu.l1i.ReadReq.missRate::total       0.011971                       # miss rate for ReadReq accesses (Ratio)
system.cpu.l1i.ReadReq.avgMissLatency::cpu.inst 212399.810473                       # average ReadReq miss latency ((Tick/Count))
system.cpu.l1i.ReadReq.avgMissLatency::total 212399.810473                       # average ReadReq miss latency ((Tick/Count))
system.cpu.l1i.ReadReq.mshrMisses::cpu.inst       569855                       # number of ReadReq MSHR misses (Count)
system.cpu.l1i.ReadReq.mshrMisses::total       569855                       # number of ReadReq MSHR misses (Count)
system.cpu.l1i.ReadReq.mshrMissLatency::cpu.inst 113439217282                       # number of ReadReq MSHR miss ticks (Tick)
system.cpu.l1i.ReadReq.mshrMissLatency::total 113439217282                       # number of ReadReq MSHR miss ticks (Tick)
system.cpu.l1i.ReadReq.mshrMissRate::cpu.inst     0.011971                       # mshr miss rate for ReadReq accesses (Ratio)
system.cpu.l1i.ReadReq.mshrMissRate::total     0.011971                       # mshr miss rate for ReadReq accesses (Ratio)
system.cpu.l1i.ReadReq.avgMshrMissLatency::cpu.inst 199066.810473                       # average ReadReq mshr miss latency ((Tick/Count))
system.cpu.l1i.ReadReq.avgMshrMissLatency::total 199066.810473                       # average ReadReq mshr miss latency ((Tick/Count))
system.cpu.l1i.power_state.pwrStateResidencyTicks::UNDEFINED 1098992684496                       # Cumulative time (in ticks) in various power states (Tick)
system.cpu.l1i.prefetcher.demandMshrMisses       569855                       # demands not covered by prefetchs (Count)
system.cpu.l1i.prefetcher.pfIssued                  0                       # number of hwpf issued (Count)
system.cpu.l1i.prefetcher.pfUseful                  0                       # number of useful prefetch (Count)
system.cpu.l1i.prefetcher.pfUsefulButMiss            0                       # number of hit on prefetch but cache block is not in an usable state (Count)
system.cpu.l1i.prefetcher.accuracy                nan                       # accuracy of the prefetcher (Count)
system.cpu.l1i.prefetcher.coverage                  0                       # coverage brought by this prefetcher (Count)
system.cpu.l1i.prefetcher.pfHitInCache              0                       # number of prefetches hitting in cache (Count)
system.cpu.l1i.prefetcher.pfHitInMSHR               0                       # number of prefetches hitting in a MSHR (Count)
system.cpu.l1i.prefetcher.pfHitInWB                 0                       # number of prefetches hit in the Write Buffer (Count)
system.cpu.l1i.prefetcher.pfLate                    0                       # number of late prefetches (hitting in cache, MSHR or WB) (Count)
system.cpu.l1i.prefetcher.pfIdentified              0                       # number of prefetch candidates identified (Count)
system.cpu.l1i.prefetcher.pfBufferHit               0                       # number of redundant prefetches already in prefetch queue (Count)
system.cpu.l1i.prefetcher.pfInCache                 0                       # number of redundant prefetches already in cache/mshr dropped (Count)
system.cpu.l1i.prefetcher.pfRemovedDemand            0                       # number of prefetches dropped due to a demand for the same address (Count)
system.cpu.l1i.prefetcher.pfRemovedFull             0                       # number of prefetches dropped due to prefetch queue size (Count)
system.cpu.l1i.prefetcher.pfSpanPage                0                       # number of prefetches that crossed the page (Count)
system.cpu.l1i.prefetcher.pfUsefulSpanPage            0                       # number of prefetches that is useful and crossed the page (Count)
system.cpu.l1i.prefetcher.power_state.pwrStateResidencyTicks::UNDEFINED 1098992684496                       # Cumulative time (in ticks) in various power states (Tick)
system.cpu.l1i.tags.tagsInUse               63.996520                       # Average ticks per tags in use ((Tick/Count))
system.cpu.l1i.tags.totalRefs                47269129                       # Total number of references to valid blocks. (Count)
system.cpu.l1i.tags.sampledRefs                569791                       # Sample count of references to valid blocks. (Count)
system.cpu.l1i.tags.avgRefs                 82.958715                       # Average number of references to valid blocks. ((Count/Count))
system.cpu.l1i.tags.warmupTick                 199995                       # The tick when the warmup percentage was hit. (Tick)
system.cpu.l1i.tags.occupancies::cpu.inst    63.996520                       # Average occupied blocks per tick, per requestor ((Count/Tick))
system.cpu.l1i.tags.avgOccs::cpu.inst        0.999946                       # Average percentage of cache occupancy ((Ratio/Tick))
system.cpu.l1i.tags.avgOccs::total           0.999946                       # Average percentage of cache occupancy ((Ratio/Tick))
system.cpu.l1i.tags.occupanciesTaskId::1024           64                       # Occupied blocks per task id (Count)
system.cpu.l1i.tags.ageTaskId_1024::0               6                       # Occupied blocks per task id, per block age (Count)
system.cpu.l1i.tags.ageTaskId_1024::1               1                       # Occupied blocks per task id, per block age (Count)
system.cpu.l1i.tags.ageTaskId_1024::2              25                       # Occupied blocks per task id, per block age (Count)
system.cpu.l1i.tags.ageTaskId_1024::3              28                       # Occupied blocks per task id, per block age (Count)
system.cpu.l1i.tags.ageTaskId_1024::4               4                       # Occupied blocks per task id, per block age (Count)
system.cpu.l1i.tags.ratioOccsTaskId::1024            1                       # Ratio of occupied blocks and all blocks, per task id (Ratio)
system.cpu.l1i.tags.tagAccesses              95771943                       # Number of tag accesses (Count)
system.cpu.l1i.tags.dataAccesses             95771943                       # Number of data accesses (Count)
system.cpu.l1i.tags.power_state.pwrStateResidencyTicks::UNDEFINED 1098992684496                       # Cumulative time (in ticks) in various power states (Tick)
system.cpu.mmu.dtb.rdAccesses                 8526670                       # TLB accesses on read requests (Count)
system.cpu.mmu.dtb.wrAccesses                 8070617                       # TLB accesses on write requests (Count)
system.cpu.mmu.dtb.rdMisses                      1698                       # TLB misses on read requests (Count)
system.cpu.mmu.dtb.wrMisses                       348                       # TLB misses on write requests (Count)
system.cpu.mmu.dtb.walker.power_state.pwrStateResidencyTicks::UNDEFINED 1098992684496                       # Cumulative time (in ticks) in various power states (Tick)
system.cpu.mmu.itb.rdAccesses                       0                       # TLB accesses on read requests (Count)
system.cpu.mmu.itb.wrAccesses                47601159                       # TLB accesses on write requests (Count)
system.cpu.mmu.itb.rdMisses                         0                       # TLB misses on read requests (Count)
system.cpu.mmu.itb.wrMisses                       478                       # TLB misses on write requests (Count)
system.cpu.mmu.itb.walker.power_state.pwrStateResidencyTicks::UNDEFINED 1098992684496                       # Cumulative time (in ticks) in various power states (Tick)
system.cpu.power_state.pwrStateResidencyTicks::ON 1098992684496                       # Cumulative time (in ticks) in various power states (Tick)
system.cpu.thread_0.numInsts                        0                       # Number of Instructions committed (Count)
system.cpu.thread_0.numOps                          0                       # Number of Ops committed (Count)
system.cpu.thread_0.numMemRefs                      0                       # Number of Memory References (Count)
system.cpu.workload.numSyscalls                   125                       # Number of system calls (Count)
system.mem_ctrl.avgPriority_writebacks::samples    187533.00                       # Average QoS priority value for accepted requests (Count)
system.mem_ctrl.avgPriority_cpu.inst::samples    569855.00                       # Average QoS priority value for accepted requests (Count)
system.mem_ctrl.avgPriority_cpu.data::samples    469668.00                       # Average QoS priority value for accepted requests (Count)
system.mem_ctrl.avgPriority_cpu.l1d.prefetcher::samples     71794.00                       # Average QoS priority value for accepted requests (Count)
system.mem_ctrl.priorityMinLatency       0.000000018750                       # per QoS priority minimum request to response latency (Second)
system.mem_ctrl.priorityMaxLatency       0.007295568024                       # per QoS priority maximum request to response latency (Second)
system.mem_ctrl.numReadWriteTurnArounds         10441                       # Number of turnarounds from READ to WRITE (Count)
system.mem_ctrl.numWriteReadTurnArounds         10441                       # Number of turnarounds from WRITE to READ (Count)
system.mem_ctrl.numStayReadState              2744483                       # Number of times bus staying in READ state (Count)
system.mem_ctrl.numStayWriteState              177288                       # Number of times bus staying in WRITE state (Count)
system.mem_ctrl.readReqs                      1190312                       # Number of read requests accepted (Count)
system.mem_ctrl.writeReqs                      241156                       # Number of write requests accepted (Count)
system.mem_ctrl.readBursts                    1190312                       # Number of controller read bursts, including those serviced by the write queue (Count)
system.mem_ctrl.writeBursts                    241156                       # Number of controller write bursts, including those merged in the write queue (Count)
system.mem_ctrl.servicedByWrQ                   78995                       # Number of controller read bursts serviced by the write queue (Count)
system.mem_ctrl.mergedWrBursts                  53623                       # Number of controller write bursts merged with an existing one (Count)
system.mem_ctrl.neitherReadNorWriteReqs             0                       # Number of requests that are neither read nor write (Count)
system.mem_ctrl.avgRdQLen                        1.03                       # Average read queue length when enqueuing ((Count/Tick))
system.mem_ctrl.avgWrQLen                       24.64                       # Average write queue length when enqueuing ((Count/Tick))
system.mem_ctrl.numRdRetry                          0                       # Number of times read queue was full causing retry (Count)
system.mem_ctrl.numWrRetry                          0                       # Number of times write queue was full causing retry (Count)
system.mem_ctrl.readPktSize::0                      0                       # Read request sizes (log2) (Count)
system.mem_ctrl.readPktSize::1                      0                       # Read request sizes (log2) (Count)
system.mem_ctrl.readPktSize::2                      0                       # Read request sizes (log2) (Count)
system.mem_ctrl.readPktSize::3                      0                       # Read request sizes (log2) (Count)
system.mem_ctrl.readPktSize::4                      0                       # Read request sizes (log2) (Count)
system.mem_ctrl.readPktSize::5                      0                       # Read request sizes (log2) (Count)
system.mem_ctrl.readPktSize::6                1190312                       # Read request sizes (log2) (Count)
system.mem_ctrl.writePktSize::0                     0                       # Write request sizes (log2) (Count)
system.mem_ctrl.writePktSize::1                     0                       # Write request sizes (log2) (Count)
system.mem_ctrl.writePktSize::2                     0                       # Write request sizes (log2) (Count)
system.mem_ctrl.writePktSize::3                     0                       # Write request sizes (log2) (Count)
system.mem_ctrl.writePktSize::4                     0                       # Write request sizes (log2) (Count)
system.mem_ctrl.writePktSize::5                     0                       # Write request sizes (log2) (Count)
system.mem_ctrl.writePktSize::6                241156                       # Write request sizes (log2) (Count)
system.mem_ctrl.rdQLenPdf::0                  1079668                       # What read queue length does an incoming req see (Count)
system.mem_ctrl.rdQLenPdf::1                    22695                       # What read queue length does an incoming req see (Count)
system.mem_ctrl.rdQLenPdf::2                     7624                       # What read queue length does an incoming req see (Count)
system.mem_ctrl.rdQLenPdf::3                     1194                       # What read queue length does an incoming req see (Count)
system.mem_ctrl.rdQLenPdf::4                      134                       # What read queue length does an incoming req see (Count)
system.mem_ctrl.rdQLenPdf::5                        2                       # What read queue length does an incoming req see (Count)
system.mem_ctrl.rdQLenPdf::6                        0                       # What read queue length does an incoming req see (Count)
system.mem_ctrl.rdQLenPdf::7                        0                       # What read queue length does an incoming req see (Count)
system.mem_ctrl.rdQLenPdf::8                        0                       # What read queue length does an incoming req see (Count)
system.mem_ctrl.rdQLenPdf::9                        0                       # What read queue length does an incoming req see (Count)
system.mem_ctrl.rdQLenPdf::10                       0                       # What read queue length does an incoming req see (Count)
system.mem_ctrl.rdQLenPdf::11                       0                       # What read queue length does an incoming req see (Count)
system.mem_ctrl.rdQLenPdf::12                       0                       # What read queue length does an incoming req see (Count)
system.mem_ctrl.rdQLenPdf::13                       0                       # What read queue length does an incoming req see (Count)
system.mem_ctrl.rdQLenPdf::14                       0                       # What read queue length does an incoming req see (Count)
system.mem_ctrl.rdQLenPdf::15                       0                       # What read queue length does an incoming req see (Count)
system.mem_ctrl.rdQLenPdf::16                       0                       # What read queue length does an incoming req see (Count)
system.mem_ctrl.rdQLenPdf::17                       0                       # What read queue length does an incoming req see (Count)
system.mem_ctrl.rdQLenPdf::18                       0                       # What read queue length does an incoming req see (Count)
system.mem_ctrl.rdQLenPdf::19                       0                       # What read queue length does an incoming req see (Count)
system.mem_ctrl.rdQLenPdf::20                       0                       # What read queue length does an incoming req see (Count)
system.mem_ctrl.rdQLenPdf::21                       0                       # What read queue length does an incoming req see (Count)
system.mem_ctrl.rdQLenPdf::22                       0                       # What read queue length does an incoming req see (Count)
system.mem_ctrl.rdQLenPdf::23                       0                       # What read queue length does an incoming req see (Count)
system.mem_ctrl.rdQLenPdf::24                       0                       # What read queue length does an incoming req see (Count)
system.mem_ctrl.rdQLenPdf::25                       0                       # What read queue length does an incoming req see (Count)
system.mem_ctrl.rdQLenPdf::26                       0                       # What read queue length does an incoming req see (Count)
system.mem_ctrl.rdQLenPdf::27                       0                       # What read queue length does an incoming req see (Count)
system.mem_ctrl.rdQLenPdf::28                       0                       # What read queue length does an incoming req see (Count)
system.mem_ctrl.rdQLenPdf::29                       0                       # What read queue length does an incoming req see (Count)
system.mem_ctrl.rdQLenPdf::30                       0                       # What read queue length does an incoming req see (Count)
system.mem_ctrl.rdQLenPdf::31                       0                       # What read queue length does an incoming req see (Count)
system.mem_ctrl.wrQLenPdf::0                        1                       # What write queue length does an incoming req see (Count)
system.mem_ctrl.wrQLenPdf::1                        1                       # What write queue length does an incoming req see (Count)
system.mem_ctrl.wrQLenPdf::2                        1                       # What write queue length does an incoming req see (Count)
system.mem_ctrl.wrQLenPdf::3                        1                       # What write queue length does an incoming req see (Count)
system.mem_ctrl.wrQLenPdf::4                        1                       # What write queue length does an incoming req see (Count)
system.mem_ctrl.wrQLenPdf::5                        1                       # What write queue length does an incoming req see (Count)
system.mem_ctrl.wrQLenPdf::6                        1                       # What write queue length does an incoming req see (Count)
system.mem_ctrl.wrQLenPdf::7                        1                       # What write queue length does an incoming req see (Count)
system.mem_ctrl.wrQLenPdf::8                        1                       # What write queue length does an incoming req see (Count)
system.mem_ctrl.wrQLenPdf::9                        1                       # What write queue length does an incoming req see (Count)
system.mem_ctrl.wrQLenPdf::10                       1                       # What write queue length does an incoming req see (Count)
system.mem_ctrl.wrQLenPdf::11                       1                       # What write queue length does an incoming req see (Count)
system.mem_ctrl.wrQLenPdf::12                       1                       # What write queue length does an incoming req see (Count)
system.mem_ctrl.wrQLenPdf::13                       1                       # What write queue length does an incoming req see (Count)
system.mem_ctrl.wrQLenPdf::14                       1                       # What write queue length does an incoming req see (Count)
system.mem_ctrl.wrQLenPdf::15                   10086                       # What write queue length does an incoming req see (Count)
system.mem_ctrl.wrQLenPdf::16                   10295                       # What write queue length does an incoming req see (Count)
system.mem_ctrl.wrQLenPdf::17                   10454                       # What write queue length does an incoming req see (Count)
system.mem_ctrl.wrQLenPdf::18                   10445                       # What write queue length does an incoming req see (Count)
system.mem_ctrl.wrQLenPdf::19                   10445                       # What write queue length does an incoming req see (Count)
system.mem_ctrl.wrQLenPdf::20                   10451                       # What write queue length does an incoming req see (Count)
system.mem_ctrl.wrQLenPdf::21                   10447                       # What write queue length does an incoming req see (Count)
system.mem_ctrl.wrQLenPdf::22                   10447                       # What write queue length does an incoming req see (Count)
system.mem_ctrl.wrQLenPdf::23                   10442                       # What write queue length does an incoming req see (Count)
system.mem_ctrl.wrQLenPdf::24                   10451                       # What write queue length does an incoming req see (Count)
system.mem_ctrl.wrQLenPdf::25                   10449                       # What write queue length does an incoming req see (Count)
system.mem_ctrl.wrQLenPdf::26                   10444                       # What write queue length does an incoming req see (Count)
system.mem_ctrl.wrQLenPdf::27                   10441                       # What write queue length does an incoming req see (Count)
system.mem_ctrl.wrQLenPdf::28                   10441                       # What write queue length does an incoming req see (Count)
system.mem_ctrl.wrQLenPdf::29                   10441                       # What write queue length does an incoming req see (Count)
system.mem_ctrl.wrQLenPdf::30                   10442                       # What write queue length does an incoming req see (Count)
system.mem_ctrl.wrQLenPdf::31                   10441                       # What write queue length does an incoming req see (Count)
system.mem_ctrl.wrQLenPdf::32                   10441                       # What write queue length does an incoming req see (Count)
system.mem_ctrl.wrQLenPdf::33                      12                       # What write queue length does an incoming req see (Count)
system.mem_ctrl.wrQLenPdf::34                       3                       # What write queue length does an incoming req see (Count)
system.mem_ctrl.wrQLenPdf::35                       0                       # What write queue length does an incoming req see (Count)
system.mem_ctrl.wrQLenPdf::36                       0                       # What write queue length does an incoming req see (Count)
system.mem_ctrl.wrQLenPdf::37                       0                       # What write queue length does an incoming req see (Count)
system.mem_ctrl.wrQLenPdf::38                       0                       # What write queue length does an incoming req see (Count)
system.mem_ctrl.wrQLenPdf::39                       0                       # What write queue length does an incoming req see (Count)
system.mem_ctrl.wrQLenPdf::40                       0                       # What write queue length does an incoming req see (Count)
system.mem_ctrl.wrQLenPdf::41                       0                       # What write queue length does an incoming req see (Count)
system.mem_ctrl.wrQLenPdf::42                       0                       # What write queue length does an incoming req see (Count)
system.mem_ctrl.wrQLenPdf::43                       0                       # What write queue length does an incoming req see (Count)
system.mem_ctrl.wrQLenPdf::44                       0                       # What write queue length does an incoming req see (Count)
system.mem_ctrl.wrQLenPdf::45                       0                       # What write queue length does an incoming req see (Count)
system.mem_ctrl.wrQLenPdf::46                       0                       # What write queue length does an incoming req see (Count)
system.mem_ctrl.wrQLenPdf::47                       0                       # What write queue length does an incoming req see (Count)
system.mem_ctrl.wrQLenPdf::48                       0                       # What write queue length does an incoming req see (Count)
system.mem_ctrl.wrQLenPdf::49                       0                       # What write queue length does an incoming req see (Count)
system.mem_ctrl.wrQLenPdf::50                       0                       # What write queue length does an incoming req see (Count)
system.mem_ctrl.wrQLenPdf::51                       0                       # What write queue length does an incoming req see (Count)
system.mem_ctrl.wrQLenPdf::52                       0                       # What write queue length does an incoming req see (Count)
system.mem_ctrl.wrQLenPdf::53                       0                       # What write queue length does an incoming req see (Count)
system.mem_ctrl.wrQLenPdf::54                       0                       # What write queue length does an incoming req see (Count)
system.mem_ctrl.wrQLenPdf::55                       0                       # What write queue length does an incoming req see (Count)
system.mem_ctrl.wrQLenPdf::56                       0                       # What write queue length does an incoming req see (Count)
system.mem_ctrl.wrQLenPdf::57                       0                       # What write queue length does an incoming req see (Count)
system.mem_ctrl.wrQLenPdf::58                       0                       # What write queue length does an incoming req see (Count)
system.mem_ctrl.wrQLenPdf::59                       0                       # What write queue length does an incoming req see (Count)
system.mem_ctrl.wrQLenPdf::60                       0                       # What write queue length does an incoming req see (Count)
system.mem_ctrl.wrQLenPdf::61                       0                       # What write queue length does an incoming req see (Count)
system.mem_ctrl.wrQLenPdf::62                       0                       # What write queue length does an incoming req see (Count)
system.mem_ctrl.wrQLenPdf::63                       0                       # What write queue length does an incoming req see (Count)
system.mem_ctrl.rdPerTurnAround::samples        10441                       # Reads before turning the bus around for writes (Count)
system.mem_ctrl.rdPerTurnAround::mean      106.403218                       # Reads before turning the bus around for writes (Count)
system.mem_ctrl.rdPerTurnAround::gmean      64.255421                       # Reads before turning the bus around for writes (Count)
system.mem_ctrl.rdPerTurnAround::stdev     104.421408                       # Reads before turning the bus around for writes (Count)
system.mem_ctrl.rdPerTurnAround::0-127           6573     62.95%     62.95% # Reads before turning the bus around for writes (Count)
system.mem_ctrl.rdPerTurnAround::128-255         2996     28.69%     91.65% # Reads before turning the bus around for writes (Count)
system.mem_ctrl.rdPerTurnAround::256-383          794      7.60%     99.25% # Reads before turning the bus around for writes (Count)
system.mem_ctrl.rdPerTurnAround::384-511           54      0.52%     99.77% # Reads before turning the bus around for writes (Count)
system.mem_ctrl.rdPerTurnAround::512-639           13      0.12%     99.89% # Reads before turning the bus around for writes (Count)
system.mem_ctrl.rdPerTurnAround::640-767            5      0.05%     99.94% # Reads before turning the bus around for writes (Count)
system.mem_ctrl.rdPerTurnAround::768-895            3      0.03%     99.97% # Reads before turning the bus around for writes (Count)
system.mem_ctrl.rdPerTurnAround::1152-1279            1      0.01%     99.98% # Reads before turning the bus around for writes (Count)
system.mem_ctrl.rdPerTurnAround::1920-2047            1      0.01%     99.99% # Reads before turning the bus around for writes (Count)
system.mem_ctrl.rdPerTurnAround::2688-2815            1      0.01%    100.00% # Reads before turning the bus around for writes (Count)
system.mem_ctrl.rdPerTurnAround::total          10441                       # Reads before turning the bus around for writes (Count)
system.mem_ctrl.wrPerTurnAround::samples        10441                       # Writes before turning the bus around for reads (Count)
system.mem_ctrl.wrPerTurnAround::mean       17.958720                       # Writes before turning the bus around for reads (Count)
system.mem_ctrl.wrPerTurnAround::gmean      17.955542                       # Writes before turning the bus around for reads (Count)
system.mem_ctrl.wrPerTurnAround::stdev       0.328880                       # Writes before turning the bus around for reads (Count)
system.mem_ctrl.wrPerTurnAround::16               215      2.06%      2.06% # Writes before turning the bus around for reads (Count)
system.mem_ctrl.wrPerTurnAround::17               137      1.31%      3.37% # Writes before turning the bus around for reads (Count)
system.mem_ctrl.wrPerTurnAround::18              9959     95.38%     98.75% # Writes before turning the bus around for reads (Count)
system.mem_ctrl.wrPerTurnAround::19               125      1.20%     99.95% # Writes before turning the bus around for reads (Count)
system.mem_ctrl.wrPerTurnAround::20                 4      0.04%     99.99% # Writes before turning the bus around for reads (Count)
system.mem_ctrl.wrPerTurnAround::21                 1      0.01%    100.00% # Writes before turning the bus around for reads (Count)
system.mem_ctrl.wrPerTurnAround::total          10441                       # Writes before turning the bus around for reads (Count)
system.mem_ctrl.bytesReadWrQ                  5055680                       # Total number of bytes read from write queue (Byte)
system.mem_ctrl.bytesReadSys                 76179968                       # Total read bytes from the system interface side (Byte)
system.mem_ctrl.bytesWrittenSys              15433984                       # Total written bytes from the system interface side (Byte)
system.mem_ctrl.avgRdBWSys               69317993.71798027                       # Average system read bandwidth in Byte/s ((Byte/Second))
system.mem_ctrl.avgWrBWSys               14043754.99285334                       # Average system write bandwidth in Byte/s ((Byte/Second))
system.mem_ctrl.totGap                   1098992391170                       # Total gap between requests (Tick)
system.mem_ctrl.avgGap                      767738.01                       # Average gap between requests ((Tick/Count))
system.mem_ctrl.requestorReadBytes::cpu.inst     36470720                       # Per-requestor bytes read from memory (Byte)
system.mem_ctrl.requestorReadBytes::cpu.data     30058752                       # Per-requestor bytes read from memory (Byte)
system.mem_ctrl.requestorReadBytes::cpu.l1d.prefetcher      4594816                       # Per-requestor bytes read from memory (Byte)
system.mem_ctrl.requestorWriteBytes::writebacks     12000448                       # Per-requestor bytes write to memory (Byte)
system.mem_ctrl.requestorReadRate::cpu.inst 33185589.417026497424                       # Per-requestor bytes read from memory rate ((Byte/Second))
system.mem_ctrl.requestorReadRate::cpu.data 27351184.793177213520                       # Per-requestor bytes read from memory rate ((Byte/Second))
system.mem_ctrl.requestorReadRate::cpu.l1d.prefetcher 4180934.108862781432                       # Per-requestor bytes read from memory rate ((Byte/Second))
system.mem_ctrl.requestorWriteRate::writebacks 10919497.617496358231                       # Per-requestor bytes write to memory rate ((Byte/Second))
system.mem_ctrl.requestorReadAccesses::cpu.inst       569855                       # Per-requestor read serviced memory accesses (Count)
system.mem_ctrl.requestorReadAccesses::cpu.data       548253                       # Per-requestor read serviced memory accesses (Count)
system.mem_ctrl.requestorReadAccesses::cpu.l1d.prefetcher        72204                       # Per-requestor read serviced memory accesses (Count)
system.mem_ctrl.requestorWriteAccesses::writebacks       241156                       # Per-requestor write serviced memory accesses (Count)
system.mem_ctrl.requestorReadTotalLat::cpu.inst  17166515131                       # Per-requestor read total memory access latency (Tick)
system.mem_ctrl.requestorReadTotalLat::cpu.data  16717224315                       # Per-requestor read total memory access latency (Tick)
system.mem_ctrl.requestorReadTotalLat::cpu.l1d.prefetcher   2094326831                       # Per-requestor read total memory access latency (Tick)
system.mem_ctrl.requestorWriteTotalLat::writebacks 26114185360146                       # Per-requestor write total memory access latency (Tick)
system.mem_ctrl.requestorReadAvgLat::cpu.inst     30124.36                       # Per-requestor read average memory access latency ((Tick/Count))
system.mem_ctrl.requestorReadAvgLat::cpu.data     30491.81                       # Per-requestor read average memory access latency ((Tick/Count))
[...]
system.mem_ctrl.dram.bwRead::total          114578399                       # Total read bandwidth from this memory ((Byte/Second))
system.mem_ctrl.dram.bwInstRead::cpu.inst     84355651                       # Instruction read bandwidth from this memory ((Byte/Second))
system.mem_ctrl.dram.bwInstRead::total       84355651                       # Instruction read bandwidth from this memory ((Byte/Second))
system.mem_ctrl.dram.bwWrite::writebacks     15248805                       # Write bandwidth from this memory ((Byte/Second))
system.mem_ctrl.dram.bwWrite::total          15248805                       # Write bandwidth from this memory ((Byte/Second))
system.mem_ctrl.dram.bwTotal::writebacks     15248805                       # Total bandwidth to/from this memory ((Byte/Second))
system.mem_ctrl.dram.bwTotal::cpu.inst       84355651                       # Total bandwidth to/from this memory ((Byte/Second))
system.mem_ctrl.dram.bwTotal::cpu.data       23045085                       # Total bandwidth to/from this memory ((Byte/Second))
system.mem_ctrl.dram.bwTotal::cpu.l1d.prefetcher      7177663                       # Total bandwidth to/from this memory ((Byte/Second))
system.mem_ctrl.dram.bwTotal::total         129827204                       # Total bandwidth to/from this memory ((Byte/Second))
system.mem_ctrl.dram.readBursts                149063                       # Number of DRAM read bursts (Count)
system.mem_ctrl.dram.writeBursts                10117                       # Number of DRAM write bursts (Count)
system.mem_ctrl.dram.perBankRdBursts::0           932                       # Per bank write bursts (Count)
system.mem_ctrl.dram.perBankRdBursts::1          4093                       # Per bank write bursts (Count)
system.mem_ctrl.dram.perBankRdBursts::2          1535                       # Per bank write bursts (Count)
system.mem_ctrl.dram.perBankRdBursts::3         28822                       # Per bank write bursts (Count)
system.mem_ctrl.dram.perBankRdBursts::4          8265                       # Per bank write bursts (Count)
system.mem_ctrl.dram.perBankRdBursts::5          7609                       # Per bank write bursts (Count)
system.mem_ctrl.dram.perBankRdBursts::6          2999                       # Per bank write bursts (Count)
system.mem_ctrl.dram.perBankRdBursts::7         11063                       # Per bank write bursts (Count)
system.mem_ctrl.dram.perBankRdBursts::8         17843                       # Per bank write bursts (Count)
system.mem_ctrl.dram.perBankRdBursts::9          1182                       # Per bank write bursts (Count)
system.mem_ctrl.dram.perBankRdBursts::10        11687                       # Per bank write bursts (Count)
system.mem_ctrl.dram.perBankRdBursts::11        30999                       # Per bank write bursts (Count)
system.mem_ctrl.dram.perBankRdBursts::12         4565                       # Per bank write bursts (Count)
system.mem_ctrl.dram.perBankRdBursts::13         6828                       # Per bank write bursts (Count)
system.mem_ctrl.dram.perBankRdBursts::14         6977                       # Per bank write bursts (Count)
system.mem_ctrl.dram.perBankRdBursts::15         3664                       # Per bank write bursts (Count)
system.mem_ctrl.dram.perBankWrBursts::0           520                       # Per bank write bursts (Count)
system.mem_ctrl.dram.perBankWrBursts::1           566                       # Per bank write bursts (Count)
system.mem_ctrl.dram.perBankWrBursts::2           584                       # Per bank write bursts (Count)
system.mem_ctrl.dram.perBankWrBursts::3           649                       # Per bank write bursts (Count)
system.mem_ctrl.dram.perBankWrBursts::4           482                       # Per bank write bursts (Count)
system.mem_ctrl.dram.perBankWrBursts::5           408                       # Per bank write bursts (Count)
system.mem_ctrl.dram.perBankWrBursts::6           595                       # Per bank write bursts (Count)
system.mem_ctrl.dram.perBankWrBursts::7           880                       # Per bank write bursts (Count)
system.mem_ctrl.dram.perBankWrBursts::8           981                       # Per bank write bursts (Count)
system.mem_ctrl.dram.perBankWrBursts::9           835                       # Per bank write bursts (Count)
system.mem_ctrl.dram.perBankWrBursts::10          536                       # Per bank write bursts (Count)
system.mem_ctrl.dram.perBankWrBursts::11          476                       # Per bank write bursts (Count)
system.mem_ctrl.dram.perBankWrBursts::12          401                       # Per bank write bursts (Count)
system.mem_ctrl.dram.perBankWrBursts::13         1148                       # Per bank write bursts (Count)
system.mem_ctrl.dram.perBankWrBursts::14          505                       # Per bank write bursts (Count)
system.mem_ctrl.dram.perBankWrBursts::15          551                       # Per bank write bursts (Count)
system.mem_ctrl.dram.totQLat               1507965838                       # Total ticks spent queuing (Tick)
system.mem_ctrl.dram.totBusLat              745315000                       # Total ticks spent in databus transfers (Tick)
system.mem_ctrl.dram.totMemAccLat          4302897088                       # Total ticks spent from burst creation until serviced by the DRAM (Tick)
system.mem_ctrl.dram.avgQLat                 10116.30                       # Average queueing delay per DRAM burst ((Tick/Count))
system.mem_ctrl.dram.avgBusLat                5000.00                       # Average bus latency per DRAM burst ((Tick/Count))
system.mem_ctrl.dram.avgMemAccLat            28866.30                       # Average memory access latency per DRAM burst ((Tick/Count))
system.mem_ctrl.dram.readRowHits               100130                       # Number of row buffer hits during reads (Count)
system.mem_ctrl.dram.writeRowHits                9039                       # Number of row buffer hits during writes (Count)
system.mem_ctrl.dram.readRowHitRate             67.17                       # Row buffer hit rate for reads (Ratio)
system.mem_ctrl.dram.writeRowHitRate            89.34                       # Row buffer hit rate for writes (Ratio)
system.mem_ctrl.dram.bytesPerActivate::samples        50010                       # Bytes accessed per row activation (Byte)
system.mem_ctrl.dram.bytesPerActivate::mean   203.712218                       # Bytes accessed per row activation (Byte)
system.mem_ctrl.dram.bytesPerActivate::gmean   145.354074                       # Bytes accessed per row activation (Byte)
system.mem_ctrl.dram.bytesPerActivate::stdev   187.041745                       # Bytes accessed per row activation (Byte)
system.mem_ctrl.dram.bytesPerActivate::0-127        19662     39.32%     39.32% # Bytes accessed per row activation (Byte)
system.mem_ctrl.dram.bytesPerActivate::128-255        14177     28.35%     67.66% # Bytes accessed per row activation (Byte)
system.mem_ctrl.dram.bytesPerActivate::256-383         7142     14.28%     81.95% # Bytes accessed per row activation (Byte)
system.mem_ctrl.dram.bytesPerActivate::384-511         4411      8.82%     90.77% # Bytes accessed per row activation (Byte)
system.mem_ctrl.dram.bytesPerActivate::512-639         2911      5.82%     96.59% # Bytes accessed per row activation (Byte)
system.mem_ctrl.dram.bytesPerActivate::640-767          809      1.62%     98.20% # Bytes accessed per row activation (Byte)
system.mem_ctrl.dram.bytesPerActivate::768-895           75      0.15%     98.35% # Bytes accessed per row activation (Byte)
system.mem_ctrl.dram.bytesPerActivate::896-1023           64      0.13%     98.48% # Bytes accessed per row activation (Byte)
system.mem_ctrl.dram.bytesPerActivate::1024-1151          759      1.52%    100.00% # Bytes accessed per row activation (Byte)
system.mem_ctrl.dram.bytesPerActivate::total        50010                       # Bytes accessed per row activation (Byte)
system.mem_ctrl.dram.dramBytesRead            9540032                       # Total bytes read (Byte)
system.mem_ctrl.dram.dramBytesWritten          647488                       # Total bytes written (Byte)
system.mem_ctrl.dram.avgRdBW               105.870174                       # Average DRAM read bandwidth in MiBytes/s ((Byte/Second))
system.mem_ctrl.dram.avgWrBW                 7.185476                       # Average DRAM write bandwidth in MiBytes/s ((Byte/Second))
system.mem_ctrl.dram.peakBW                  12800.00                       # Theoretical peak bandwidth in MiByte/s ((Byte/Second))
system.mem_ctrl.dram.busUtil                     0.88                       # Data bus utilization in percentage (Ratio)
system.mem_ctrl.dram.busUtilRead                 0.83                       # Data bus utilization in percentage for reads (Ratio)
system.mem_ctrl.dram.busUtilWrite                0.06                       # Data bus utilization in percentage for writes (Ratio)
system.mem_ctrl.dram.pageHitRate                68.58                       # Row buffer hit rate, read and write combined (Ratio)
system.mem_ctrl.dram.power_state.pwrStateResidencyTicks::UNDEFINED  90110667177                       # Cumulative time (in ticks) in various power states (Tick)
system.mem_ctrl.dram.rank0.actEnergy        158843580                       # Energy for activate commands per rank (pJ) (Joule)
system.mem_ctrl.dram.rank0.preEnergy         84423570                       # Energy for precharge commands per rank (pJ) (Joule)
system.mem_ctrl.dram.rank0.readEnergy       466370520                       # Energy for read commands per rank (pJ) (Joule)
system.mem_ctrl.dram.rank0.writeEnergy       24450480                       # Energy for write commands per rank (pJ) (Joule)
system.mem_ctrl.dram.rank0.refreshEnergy 7113228720.000001                       # Energy for refresh commands per rank (pJ) (Joule)
system.mem_ctrl.dram.rank0.actBackEnergy  29993814390                       # Energy for active background per rank (pJ) (Joule)
system.mem_ctrl.dram.rank0.preBackEnergy   9344547360                       # Energy for precharge background per rank (pJ) (Joule)
system.mem_ctrl.dram.rank0.actPowerDownEnergy            0                       # Energy for active power-down per rank (pJ) (Joule)
system.mem_ctrl.dram.rank0.prePowerDownEnergy            0                       # Energy for precharge power-down per rank (pJ) (Joule)
system.mem_ctrl.dram.rank0.selfRefreshEnergy            0                       # Energy for self refresh per rank (pJ) (Joule)
system.mem_ctrl.dram.rank0.totalEnergy    47185678620                       # Total energy per rank (pJ) (Joule)
system.mem_ctrl.dram.rank0.averagePower    523.641430                       # Core power per rank (mW) (Watt)
system.mem_ctrl.dram.rank0.totalIdleTime            0                       # Total Idle time Per DRAM Rank (Tick)
system.mem_ctrl.dram.rank0.pwrStateTime::IDLE  24014802836                       # Time in different power states (Tick)
system.mem_ctrl.dram.rank0.pwrStateTime::REF   3008980000                       # Time in different power states (Tick)
system.mem_ctrl.dram.rank0.pwrStateTime::SREF            0                       # Time in different power states (Tick)
system.mem_ctrl.dram.rank0.pwrStateTime::PRE_PDN            0                       # Time in different power states (Tick)
system.mem_ctrl.dram.rank0.pwrStateTime::ACT  63086884341                       # Time in different power states (Tick)
system.mem_ctrl.dram.rank0.pwrStateTime::ACT_PDN            0                       # Time in different power states (Tick)
system.mem_ctrl.dram.rank1.actEnergy        198234960                       # Energy for activate commands per rank (pJ) (Joule)
system.mem_ctrl.dram.rank1.preEnergy        105364380                       # Energy for precharge commands per rank (pJ) (Joule)
system.mem_ctrl.dram.rank1.readEnergy       597939300                       # Energy for read commands per rank (pJ) (Joule)
system.mem_ctrl.dram.rank1.writeEnergy       28360260                       # Energy for write commands per rank (pJ) (Joule)
system.mem_ctrl.dram.rank1.refreshEnergy 7113228720.000001                       # Energy for refresh commands per rank (pJ) (Joule)
system.mem_ctrl.dram.rank1.actBackEnergy  31945655700                       # Energy for active background per rank (pJ) (Joule)
system.mem_ctrl.dram.rank1.preBackEnergy   7700891520                       # Energy for precharge background per rank (pJ) (Joule)
system.mem_ctrl.dram.rank1.actPowerDownEnergy            0                       # Energy for active power-down per rank (pJ) (Joule)
system.mem_ctrl.dram.rank1.prePowerDownEnergy            0                       # Energy for precharge power-down per rank (pJ) (Joule)
system.mem_ctrl.dram.rank1.selfRefreshEnergy            0                       # Energy for self refresh per rank (pJ) (Joule)
system.mem_ctrl.dram.rank1.totalEnergy    47689674840                       # Total energy per rank (pJ) (Joule)
system.mem_ctrl.dram.rank1.averagePower    529.234511                       # Core power per rank (mW) (Watt)
system.mem_ctrl.dram.rank1.totalIdleTime            0                       # Total Idle time Per DRAM Rank (Tick)
system.mem_ctrl.dram.rank1.pwrStateTime::IDLE  19739511027                       # Time in different power states (Tick)
system.mem_ctrl.dram.rank1.pwrStateTime::REF   3008980000                       # Time in different power states (Tick)
system.mem_ctrl.dram.rank1.pwrStateTime::SREF            0                       # Time in different power states (Tick)
system.mem_ctrl.dram.rank1.pwrStateTime::PRE_PDN            0                       # Time in different power states (Tick)
system.mem_ctrl.dram.rank1.pwrStateTime::ACT  67362176150                       # Time in different power states (Tick)
system.mem_ctrl.dram.rank1.pwrStateTime::ACT_PDN            0                       # Time in different power states (Tick)
system.mem_ctrl.power_state.pwrStateResidencyTicks::UNDEFINED  90110667177                       # Cumulative time (in ticks) in various power states (Tick)
system.membus.transDist::ReadResp              153938                       # Transaction distribution (Count)
system.membus.transDist::WritebackDirty         21470                       # Transaction distribution (Count)
system.membus.transDist::CleanEvict            139854                       # Transaction distribution (Count)
system.membus.transDist::ReadExReq               7386                       # Transaction distribution (Count)
system.membus.transDist::ReadExResp              7386                       # Transaction distribution (Count)
system.membus.transDist::ReadSharedReq         153938                       # Transaction distribution (Count)
system.membus.pktCount_system.cpu.l1d.mem_side_port::system.mem_ctrl.port       127659                       # Packet count per connected requestor and responder (Count)
system.membus.pktCount_system.cpu.l1d.mem_side_port::total       127659                       # Packet count per connected requestor and responder (Count)
system.membus.pktCount_system.cpu.l1i.mem_side_port::system.mem_ctrl.port       356313                       # Packet count per connected requestor and responder (Count)
system.membus.pktCount_system.cpu.l1i.mem_side_port::total       356313                       # Packet count per connected requestor and responder (Count)
system.membus.pktCount::total                  483972                       # Packet count per connected requestor and responder (Count)
system.membus.pktSize_system.cpu.l1d.mem_side_port::system.mem_ctrl.port      4097472                       # Cumulative packet size per connected requestor and responder (Byte)
system.membus.pktSize_system.cpu.l1d.mem_side_port::total      4097472                       # Cumulative packet size per connected requestor and responder (Byte)
system.membus.pktSize_system.cpu.l1i.mem_side_port::system.mem_ctrl.port      7601344                       # Cumulative packet size per connected requestor and responder (Byte)
system.membus.pktSize_system.cpu.l1i.mem_side_port::total      7601344                       # Cumulative packet size per connected requestor and responder (Byte)
system.membus.pktSize::total                 11698816                       # Cumulative packet size per connected requestor and responder (Byte)
system.membus.snoops                                0                       # Total snoops (Count)
system.membus.snoopTraffic                          0                       # Total snoop traffic (Byte)
system.membus.snoopFanout::samples             161324                       # Request fanout histogram (Count)
system.membus.snoopFanout::mean                     0                       # Request fanout histogram (Count)
system.membus.snoopFanout::stdev                    0                       # Request fanout histogram (Count)
system.membus.snoopFanout::underflows               0      0.00%      0.00% # Request fanout histogram (Count)
system.membus.snoopFanout::0                   161324    100.00%    100.00% # Request fanout histogram (Count)
system.membus.snoopFanout::1                        0      0.00%    100.00% # Request fanout histogram (Count)
system.membus.snoopFanout::2                        0      0.00%    100.00% # Request fanout histogram (Count)
system.membus.snoopFanout::overflows                0      0.00%    100.00% # Request fanout histogram (Count)
system.membus.snoopFanout::min_value                0                       # Request fanout histogram (Count)
system.membus.snoopFanout::max_value                0                       # Request fanout histogram (Count)
system.membus.snoopFanout::total               161324                       # Request fanout histogram (Count)
system.membus.power_state.pwrStateResidencyTicks::UNDEFINED  90110667177                       # Cumulative time (in ticks) in various power states (Tick)
system.membus.reqLayer2.occupancy          5493905579                       # Layer occupancy (ticks) (Tick)
system.membus.reqLayer2.utilization               0.1                       # Layer utilization (Ratio)
system.membus.respLayer2.occupancy         2908585492                       # Layer occupancy (ticks) (Tick)
system.membus.respLayer2.utilization              0.0                       # Layer utilization (Ratio)
system.membus.respLayer3.occupancy         8079878887                       # Layer occupancy (ticks) (Tick)
system.membus.respLayer3.utilization              0.1                       # Layer utilization (Ratio)
system.membus.snoop_filter.totRequests         322648                       # Total number of requests made to the snoop filter. (Count)
system.membus.snoop_filter.hitSingleRequests       161324                       # Number of requests hitting in the snoop filter with a single holder of the requested data. (Count)
system.membus.snoop_filter.hitMultiRequests            0                       # Number of requests hitting in the snoop filter with multiple (>1) holders of the requested data. (Count)
system.membus.snoop_filter.totSnoops                0                       # Total number of snoops made to the snoop filter. (Count)
system.membus.snoop_filter.hitSingleSnoops            0                       # Number of snoops hitting in the snoop filter with a single holder of the requested data. (Count)
system.membus.snoop_filter.hitMultiSnoops            0                       # Number of snoops hitting in the snoop filter with multiple (>1) holders of the requested data. (Count)
system.workload.inst.arm                            0                       # number of arm instructions executed (Count)
system.workload.inst.quiesce                        0                       # number of quiesce instructions executed (Count)

---------- End Simulation Statistics   ----------
