
---------- Begin Simulation Statistics ----------
simSeconds                                   1.046275                       # Number of seconds simulated (Second)
simTicks                                 1046274589148                       # Number of ticks simulated (Tick)
finalTick                                1046274589148                       # Number of ticks from beginning of simulation (restored from checkpoints and never reset) (Tick)
simFreq                                  1000000000000                       # The number of ticks per simulated second ((Tick/Second))
hostSeconds                                    548.22                       # Real time elapsed on the host (Second)
hostTickRate                               1908478733                       # The number of ticks simulated per host second (ticks/s) ((Tick/Second))
hostMemory                                    8631608                       # Number of bytes of host memory used (Byte)
simInsts                                     96191062                       # Number of instructions simulated (Count)
simOps                                      152961043                       # Number of ops (including micro ops) simulated (Count)
hostInstRate                                   175459                       # Simulator instruction rate (inst/s) ((Count/Second))
hostOpRate                                     279012                       # Simulator op (including micro ops) rate (op/s) ((Count/Second))
system.clk_domain.clock                         13333                       # Clock period in ticks (Tick)
system.clk_domain.voltage_domain.voltage            1                       # Voltage in Volts (Volt)
system.cpu.numCycles                         78472557                       # Number of cpu cycles simulated (Cycle)
system.cpu.cpi                               0.815799                       # CPI: cycles per instruction (core level) ((Cycle/Count))
system.cpu.ipc                               1.225792                       # IPC: instructions per cycle (core level) ((Count/Cycle))
system.cpu.numWorkItemsStarted                      0                       # Number of work items this cpu started (Count)
system.cpu.numWorkItemsCompleted                    0                       # Number of work items this cpu completed (Count)
system.cpu.instsAdded                       250115284                       # Number of instructions added to the IQ (excludes non-spec) (Count)
system.cpu.nonSpecInstsAdded                     2639                       # Number of non-speculative instructions added to the IQ (Count)
system.cpu.instsIssued                      217556968                       # Number of instructions issued (Count)
system.cpu.squashedInstsIssued                1919614                       # Number of squashed instructions issued (Count)
system.cpu.squashedInstsExamined             97156869                       # Number of squashed instructions iterated over during squash; mainly for profiling (Count)
system.cpu.squashedOperandsExamined         158696263                       # Number of squashed operands that are examined and possibly removed from graph (Count)
system.cpu.squashedNonSpecRemoved                 252                       # Number of squashed non-spec instructions that were removed (Count)
system.cpu.numIssuedDist::samples            78453553                       # Number of insts issued each cycle (Count)
system.cpu.numIssuedDist::mean               2.773067                       # Number of insts issued each cycle (Count)
system.cpu.numIssuedDist::stdev              2.590879                       # Number of insts issued each cycle (Count)
system.cpu.numIssuedDist::underflows                0      0.00%      0.00% # Number of insts issued each cycle (Count)
system.cpu.numIssuedDist::0                  25729933     32.80%     32.80% # Number of insts issued each cycle (Count)
system.cpu.numIssuedDist::1                   7899347     10.07%     42.87% # Number of insts issued each cycle (Count)
system.cpu.numIssuedDist::2                   6802888      8.67%     51.54% # Number of insts issued each cycle (Count)
system.cpu.numIssuedDist::3                   7092109      9.04%     60.58% # Number of insts issued each cycle (Count)
system.cpu.numIssuedDist::4                   6670068      8.50%     69.08% # Number of insts issued each cycle (Count)
system.cpu.numIssuedDist::5                   6896659      8.79%     77.87% # Number of insts issued each cycle (Count)
system.cpu.numIssuedDist::6                   9988884     12.73%     90.60% # Number of insts issued each cycle (Count)
system.cpu.numIssuedDist::7                   5310673      6.77%     97.37% # Number of insts issued each cycle (Count)
system.cpu.numIssuedDist::8                   2062992      2.63%    100.00% # Number of insts issued each cycle (Count)
system.cpu.numIssuedDist::overflows                 0      0.00%    100.00% # Number of insts issued each cycle (Count)
system.cpu.numIssuedDist::min_value                 0                       # Number of insts issued each cycle (Count)
system.cpu.numIssuedDist::max_value                 8                       # Number of insts issued each cycle (Count)
system.cpu.numIssuedDist::total              78453553                       # Number of insts issued each cycle (Count)
system.cpu.statFuBusy::No_OpClass                   0      0.00%      0.00% # attempts to use FU when none available (Count)
system.cpu.statFuBusy::IntAlu                 7746444     98.84%     98.84% # attempts to use FU when none available (Count)
system.cpu.statFuBusy::IntMult                      0      0.00%     98.84% # attempts to use FU when none available (Count)
system.cpu.statFuBusy::IntDiv                       0      0.00%     98.84% # attempts to use FU when none available (Count)
system.cpu.statFuBusy::FloatAdd                     0      0.00%     98.84% # attempts to use FU when none available (Count)
system.cpu.statFuBusy::FloatCmp                     0      0.00%     98.84% # attempts to use FU when none available (Count)
system.cpu.statFuBusy::FloatCvt                     0      0.00%     98.84% # attempts to use FU when none available (Count)
system.cpu.statFuBusy::FloatMult                    0      0.00%     98.84% # attempts to use FU when none available (Count)
system.cpu.statFuBusy::FloatMultAcc                 0      0.00%     98.84% # attempts to use FU when none available (Count)
system.cpu.statFuBusy::FloatDiv                     0      0.00%     98.84% # attempts to use FU when none available (Count)
system.cpu.statFuBusy::FloatMisc                    0      0.00%     98.84% # attempts to use FU when none available (Count)
system.cpu.statFuBusy::FloatSqrt                    0      0.00%     98.84% # attempts to use FU when none available (Count)
system.cpu.statFuBusy::SimdAdd                      2      0.00%     98.84% # attempts to use FU when none available (Count)
system.cpu.statFuBusy::SimdAddAcc                   0      0.00%     98.84% # attempts to use FU when none available (Count)
system.cpu.statFuBusy::SimdAlu                    112      0.00%     98.84% # attempts to use FU when none available (Count)
system.cpu.statFuBusy::SimdCmp                      2      0.00%     98.84% # attempts to use FU when none available (Count)
system.cpu.statFuBusy::SimdCvt                    235      0.00%     98.84% # attempts to use FU when none available (Count)
system.cpu.statFuBusy::SimdMisc                    30      0.00%     98.84% # attempts to use FU when none available (Count)
system.cpu.statFuBusy::SimdMult                     0      0.00%     98.84% # attempts to use FU when none available (Count)
system.cpu.statFuBusy::SimdMultAcc                  0      0.00%     98.84% # attempts to use FU when none available (Count)
system.cpu.statFuBusy::SimdMatMultAcc               0      0.00%     98.84% # attempts to use FU when none available (Count)
system.cpu.statFuBusy::SimdShift                   24      0.00%     98.84% # attempts to use FU when none available (Count)
system.cpu.statFuBusy::SimdShiftAcc                 0      0.00%     98.84% # attempts to use FU when none available (Count)
system.cpu.statFuBusy::SimdDiv                      0      0.00%     98.84% # attempts to use FU when none available (Count)
system.cpu.statFuBusy::SimdSqrt                     0      0.00%     98.84% # attempts to use FU when none available (Count)
system.cpu.statFuBusy::SimdFloatAdd                 0      0.00%     98.84% # attempts to use FU when none available (Count)
system.cpu.statFuBusy::SimdFloatAlu                 0      0.00%     98.84% # attempts to use FU when none available (Count)
system.cpu.statFuBusy::SimdFloatCmp                 0      0.00%     98.84% # attempts to use FU when none available (Count)
system.cpu.statFuBusy::SimdFloatCvt                 0      0.00%     98.84% # attempts to use FU when none available (Count)
system.cpu.statFuBusy::SimdFloatDiv                 0      0.00%     98.84% # attempts to use FU when none available (Count)
system.cpu.statFuBusy::SimdFloatMisc                0      0.00%     98.84% # attempts to use FU when none available (Count)
system.cpu.statFuBusy::SimdFloatMult                0      0.00%     98.84% # attempts to use FU when none available (Count)
system.cpu.statFuBusy::SimdFloatMultAcc             0      0.00%     98.84% # attempts to use FU when none available (Count)
system.cpu.statFuBusy::SimdFloatMatMultAcc            0      0.00%     98.84% # attempts to use FU when none available (Count)
system.cpu.statFuBusy::SimdFloatSqrt                0      0.00%     98.84% # attempts to use FU when none available (Count)
system.cpu.statFuBusy::SimdReduceAdd                0      0.00%     98.84% # attempts to use FU when none available (Count)
system.cpu.statFuBusy::SimdReduceAlu                0      0.00%     98.84% # attempts to use FU when none available (Count)
system.cpu.statFuBusy::SimdReduceCmp                0      0.00%     98.84% # attempts to use FU when none available (Count)
system.cpu.statFuBusy::SimdFloatReduceAdd            0      0.00%     98.84% # attempts to use FU when none available (Count)
system.cpu.statFuBusy::SimdFloatReduceCmp            0      0.00%     98.84% # attempts to use FU when none available (Count)
system.cpu.statFuBusy::SimdAes                      0      0.00%     98.84% # attempts to use FU when none available (Count)
system.cpu.statFuBusy::SimdAesMix                   0      0.00%     98.84% # attempts to use FU when none available (Count)
system.cpu.statFuBusy::SimdSha1Hash                 0      0.00%     98.84% # attempts to use FU when none available (Count)
system.cpu.statFuBusy::SimdSha1Hash2                0      0.00%     98.84% # attempts to use FU when none available (Count)
system.cpu.statFuBusy::SimdSha256Hash               0      0.00%     98.84% # attempts to use FU when none available (Count)
system.cpu.statFuBusy::SimdSha256Hash2              0      0.00%     98.84% # attempts to use FU when none available (Count)
system.cpu.statFuBusy::SimdShaSigma2                0      0.00%     98.84% # attempts to use FU when none available (Count)
system.cpu.statFuBusy::SimdShaSigma3                0      0.00%     98.84% # attempts to use FU when none available (Count)
system.cpu.statFuBusy::SimdPredAlu                  0      0.00%     98.84% # attempts to use FU when none available (Count)
system.cpu.statFuBusy::Matrix                       0      0.00%     98.84% # attempts to use FU when none available (Count)
system.cpu.statFuBusy::MatrixMov                    0      0.00%     98.84% # attempts to use FU when none available (Count)
system.cpu.statFuBusy::MatrixOP                     0      0.00%     98.84% # attempts to use FU when none available (Count)
system.cpu.statFuBusy::MemRead                  36444      0.46%     99.31% # attempts to use FU when none available (Count)
system.cpu.statFuBusy::MemWrite                 44542      0.57%     99.88% # attempts to use FU when none available (Count)
system.cpu.statFuBusy::FloatMemRead              2716      0.03%     99.91% # attempts to use FU when none available (Count)
system.cpu.statFuBusy::FloatMemWrite             7053      0.09%    100.00% # attempts to use FU when none available (Count)
system.cpu.statFuBusy::IprAccess                    0      0.00%    100.00% # attempts to use FU when none available (Count)
system.cpu.statFuBusy::InstPrefetch                 0      0.00%    100.00% # attempts to use FU when none available (Count)
system.cpu.statFuBusy::SimdUnitStrideLoad            0      0.00%    100.00% # attempts to use FU when none available (Count)
system.cpu.statFuBusy::SimdUnitStrideStore            0      0.00%    100.00% # attempts to use FU when none available (Count)
system.cpu.statFuBusy::SimdUnitStrideMaskLoad            0      0.00%    100.00% # attempts to use FU when none available (Count)
system.cpu.statFuBusy::SimdUnitStrideMaskStore            0      0.00%    100.00% # attempts to use FU when none available (Count)
system.cpu.statFuBusy::SimdStridedLoad              0      0.00%    100.00% # attempts to use FU when none available (Count)
system.cpu.statFuBusy::SimdStridedStore             0      0.00%    100.00% # attempts to use FU when none available (Count)
system.cpu.statFuBusy::SimdIndexedLoad              0      0.00%    100.00% # attempts to use FU when none available (Count)
system.cpu.statFuBusy::SimdIndexedStore             0      0.00%    100.00% # attempts to use FU when none available (Count)
system.cpu.statFuBusy::SimdWholeRegisterLoad            0      0.00%    100.00% # attempts to use FU when none available (Count)
system.cpu.statFuBusy::SimdWholeRegisterStore            0      0.00%    100.00% # attempts to use FU when none available (Count)
system.cpu.statFuBusy::SimdUnitStrideFaultOnlyFirstLoad            0      0.00%    100.00% # attempts to use FU when none available (Count)
system.cpu.statFuBusy::SimdUnitStrideSegmentedLoad            0      0.00%    100.00% # attempts to use FU when none available (Count)
system.cpu.statFuBusy::SimdUnitStrideSegmentedStore            0      0.00%    100.00% # attempts to use FU when none available (Count)
system.cpu.statFuBusy::SimdExt                      0      0.00%    100.00% # attempts to use FU when none available (Count)
system.cpu.statFuBusy::SimdFloatExt                 0      0.00%    100.00% # attempts to use FU when none available (Count)
system.cpu.statFuBusy::SimdConfig                   0      0.00%    100.00% # attempts to use FU when none available (Count)
system.cpu.statIssuedInstType_0::No_OpClass       455142      0.21%      0.21% # Number of instructions issued per FU type, per thread (Count)
system.cpu.statIssuedInstType_0::IntAlu     185253311     85.15%     85.36% # Number of instructions issued per FU type, per thread (Count)
system.cpu.statIssuedInstType_0::IntMult          261      0.00%     85.36% # Number of instructions issued per FU type, per thread (Count)
system.cpu.statIssuedInstType_0::IntDiv         43090      0.02%     85.38% # Number of instructions issued per FU type, per thread (Count)
system.cpu.statIssuedInstType_0::FloatAdd       296081      0.14%     85.52% # Number of instructions issued per FU type, per thread (Count)
system.cpu.statIssuedInstType_0::FloatCmp            0      0.00%     85.52% # Number of instructions issued per FU type, per thread (Count)
system.cpu.statIssuedInstType_0::FloatCvt         1648      0.00%     85.52% # Number of instructions issued per FU type, per thread (Count)
system.cpu.statIssuedInstType_0::FloatMult            0      0.00%     85.52% # Number of instructions issued per FU type, per thread (Count)
system.cpu.statIssuedInstType_0::FloatMultAcc            0      0.00%     85.52% # Number of instructions issued per FU type, per thread (Count)
system.cpu.statIssuedInstType_0::FloatDiv            0      0.00%     85.52% # Number of instructions issued per FU type, per thread (Count)
system.cpu.statIssuedInstType_0::FloatMisc            0      0.00%     85.52% # Number of instructions issued per FU type, per thread (Count)
system.cpu.statIssuedInstType_0::FloatSqrt            0      0.00%     85.52% # Number of instructions issued per FU type, per thread (Count)
system.cpu.statIssuedInstType_0::SimdAdd         7353      0.00%     85.52% # Number of instructions issued per FU type, per thread (Count)
system.cpu.statIssuedInstType_0::SimdAddAcc            0      0.00%     85.52% # Number of instructions issued per FU type, per thread (Count)
system.cpu.statIssuedInstType_0::SimdAlu        16815      0.01%     85.53% # Number of instructions issued per FU type, per thread (Count)
system.cpu.statIssuedInstType_0::SimdCmp           46      0.00%     85.53% # Number of instructions issued per FU type, per thread (Count)
system.cpu.statIssuedInstType_0::SimdCvt        16037      0.01%     85.54% # Number of instructions issued per FU type, per thread (Count)
system.cpu.statIssuedInstType_0::SimdMisc       296036      0.14%     85.67% # Number of instructions issued per FU type, per thread (Count)
system.cpu.statIssuedInstType_0::SimdMult            0      0.00%     85.67% # Number of instructions issued per FU type, per thread (Count)
system.cpu.statIssuedInstType_0::SimdMultAcc            0      0.00%     85.67% # Number of instructions issued per FU type, per thread (Count)
system.cpu.statIssuedInstType_0::SimdMatMultAcc            0      0.00%     85.67% # Number of instructions issued per FU type, per thread (Count)
system.cpu.statIssuedInstType_0::SimdShift         3851      0.00%     85.67% # Number of instructions issued per FU type, per thread (Count)
system.cpu.statIssuedInstType_0::SimdShiftAcc            0      0.00%     85.67% # Number of instructions issued per FU type, per thread (Count)
system.cpu.statIssuedInstType_0::SimdDiv            0      0.00%     85.67% # Number of instructions issued per FU type, per thread (Count)
system.cpu.statIssuedInstType_0::SimdSqrt            0      0.00%     85.67% # Number of instructions issued per FU type, per thread (Count)
system.cpu.statIssuedInstType_0::SimdFloatAdd           29      0.00%     85.67% # Number of instructions issued per FU type, per thread (Count)
system.cpu.statIssuedInstType_0::SimdFloatAlu            0      0.00%     85.67% # Number of instructions issued per FU type, per thread (Count)
system.cpu.statIssuedInstType_0::SimdFloatCmp            0      0.00%     85.67% # Number of instructions issued per FU type, per thread (Count)
system.cpu.statIssuedInstType_0::SimdFloatCvt           59      0.00%     85.67% # Number of instructions issued per FU type, per thread (Count)
system.cpu.statIssuedInstType_0::SimdFloatDiv           29      0.00%     85.67% # Number of instructions issued per FU type, per thread (Count)
system.cpu.statIssuedInstType_0::SimdFloatMisc            0      0.00%     85.67% # Number of instructions issued per FU type, per thread (Count)
system.cpu.statIssuedInstType_0::SimdFloatMult            0      0.00%     85.67% # Number of instructions issued per FU type, per thread (Count)
system.cpu.statIssuedInstType_0::SimdFloatMultAcc            0      0.00%     85.67% # Number of instructions issued per FU type, per thread (Count)
system.cpu.statIssuedInstType_0::SimdFloatMatMultAcc            0      0.00%     85.67% # Number of instructions issued per FU type, per thread (Count)
system.cpu.statIssuedInstType_0::SimdFloatSqrt            0      0.00%     85.67% # Number of instructions issued per FU type, per thread (Count)
system.cpu.statIssuedInstType_0::SimdReduceAdd            0      0.00%     85.67% # Number of instructions issued per FU type, per thread (Count)
system.cpu.statIssuedInstType_0::SimdReduceAlu            0      0.00%     85.67% # Number of instructions issued per FU type, per thread (Count)
system.cpu.statIssuedInstType_0::SimdReduceCmp            0      0.00%     85.67% # Number of instructions issued per FU type, per thread (Count)
system.cpu.statIssuedInstType_0::SimdFloatReduceAdd            0      0.00%     85.67% # Number of instructions issued per FU type, per thread (Count)
system.cpu.statIssuedInstType_0::SimdFloatReduceCmp            0      0.00%     85.67% # Number of instructions issued per FU type, per thread (Count)
system.cpu.statIssuedInstType_0::SimdAes            0      0.00%     85.67% # Number of instructions issued per FU type, per thread (Count)
system.cpu.statIssuedInstType_0::SimdAesMix            0      0.00%     85.67% # Number of instructions issued per FU type, per thread (Count)
system.cpu.statIssuedInstType_0::SimdSha1Hash            0      0.00%     85.67% # Number of instructions issued per FU type, per thread (Count)
system.cpu.statIssuedInstType_0::SimdSha1Hash2            0      0.00%     85.67% # Number of instructions issued per FU type, per thread (Count)
system.cpu.statIssuedInstType_0::SimdSha256Hash            0      0.00%     85.67% # Number of instructions issued per FU type, per thread (Count)
system.cpu.statIssuedInstType_0::SimdSha256Hash2            0      0.00%     85.67% # Number of instructions issued per FU type, per thread (Count)
system.cpu.statIssuedInstType_0::SimdShaSigma2            0      0.00%     85.67% # Number of instructions issued per FU type, per thread (Count)
system.cpu.statIssuedInstType_0::SimdShaSigma3            0      0.00%     85.67% # Number of instructions issued per FU type, per thread (Count)
system.cpu.statIssuedInstType_0::SimdPredAlu            0      0.00%     85.67% # Number of instructions issued per FU type, per thread (Count)
system.cpu.statIssuedInstType_0::Matrix             0      0.00%     85.67% # Number of instructions issued per FU type, per thread (Count)
system.cpu.statIssuedInstType_0::MatrixMov            0      0.00%     85.67% # Number of instructions issued per FU type, per thread (Count)
system.cpu.statIssuedInstType_0::MatrixOP            0      0.00%     85.67% # Number of instructions issued per FU type, per thread (Count)
system.cpu.statIssuedInstType_0::MemRead     21375612      9.83%     95.50% # Number of instructions issued per FU type, per thread (Count)
system.cpu.statIssuedInstType_0::MemWrite      8172377      3.76%     99.26% # Number of instructions issued per FU type, per thread (Count)
system.cpu.statIssuedInstType_0::FloatMemRead       250527      0.12%     99.37% # Number of instructions issued per FU type, per thread (Count)
system.cpu.statIssuedInstType_0::FloatMemWrite      1368664      0.63%    100.00% # Number of instructions issued per FU type, per thread (Count)
system.cpu.statIssuedInstType_0::IprAccess            0      0.00%    100.00% # Number of instructions issued per FU type, per thread (Count)
system.cpu.statIssuedInstType_0::InstPrefetch            0      0.00%    100.00% # Number of instructions issued per FU type, per thread (Count)
system.cpu.statIssuedInstType_0::SimdUnitStrideLoad            0      0.00%    100.00% # Number of instructions issued per FU type, per thread (Count)
system.cpu.statIssuedInstType_0::SimdUnitStrideStore            0      0.00%    100.00% # Number of instructions issued per FU type, per thread (Count)
system.cpu.statIssuedInstType_0::SimdUnitStrideMaskLoad            0      0.00%    100.00% # Number of instructions issued per FU type, per thread (Count)
system.cpu.statIssuedInstType_0::SimdUnitStrideMaskStore            0      0.00%    100.00% # Number of instructions issued per FU type, per thread (Count)
system.cpu.statIssuedInstType_0::SimdStridedLoad            0      0.00%    100.00% # Number of instructions issued per FU type, per thread (Count)
system.cpu.statIssuedInstType_0::SimdStridedStore            0      0.00%    100.00% # Number of instructions issued per FU type, per thread (Count)
system.cpu.statIssuedInstType_0::SimdIndexedLoad            0      0.00%    100.00% # Number of instructions issued per FU type, per thread (Count)
system.cpu.statIssuedInstType_0::SimdIndexedStore            0      0.00%    100.00% # Number of instructions issued per FU type, per thread (Count)
system.cpu.statIssuedInstType_0::SimdWholeRegisterLoad            0      0.00%    100.00% # Number of instructions issued per FU type, per thread (Count)
system.cpu.statIssuedInstType_0::SimdWholeRegisterStore            0      0.00%    100.00% # Number of instructions issued per FU type, per thread (Count)
system.cpu.statIssuedInstType_0::SimdUnitStrideFaultOnlyFirstLoad            0      0.00%    100.00% # Number of instructions issued per FU type, per thread (Count)
system.cpu.statIssuedInstType_0::SimdUnitStrideSegmentedLoad            0      0.00%    100.00% # Number of instructions issued per FU type, per thread (Count)
system.cpu.statIssuedInstType_0::SimdUnitStrideSegmentedStore            0      0.00%    100.00% # Number of instructions issued per FU type, per thread (Count)
system.cpu.statIssuedInstType_0::SimdExt            0      0.00%    100.00% # Number of instructions issued per FU type, per thread (Count)
system.cpu.statIssuedInstType_0::SimdFloatExt            0      0.00%    100.00% # Number of instructions issued per FU type, per thread (Count)
system.cpu.statIssuedInstType_0::SimdConfig            0      0.00%    100.00% # Number of instructions issued per FU type, per thread (Count)
system.cpu.statIssuedInstType_0::total      217556968                       # Number of instructions issued per FU type, per thread (Count)
system.cpu.issueRate                         2.772396                       # Inst issue rate ((Count/Cycle))
system.cpu.fuBusy                             7837604                       # FU busy when requested (Count)
system.cpu.fuBusyRate                        0.036026                       # FU busy rate (busy events/executed inst) ((Count/Count))
system.cpu.intInstQueueReads                518626946                       # Number of integer instruction queue reads (Count)
system.cpu.intInstQueueWrites               344082742                       # Number of integer instruction queue writes (Count)
system.cpu.intInstQueueWakeupAccesses       209961716                       # Number of integer instruction queue wakeup accesses (Count)
system.cpu.fpInstQueueReads                   4697761                       # Number of floating instruction queue reads (Count)
system.cpu.fpInstQueueWrites                  3201603                       # Number of floating instruction queue writes (Count)
system.cpu.fpInstQueueWakeupAccesses          2269122                       # Number of floating instruction queue wakeup accesses (Count)
system.cpu.vecInstQueueReads                        0                       # Number of vector instruction queue reads (Count)
system.cpu.vecInstQueueWrites                       0                       # Number of vector instruction queue writes (Count)
system.cpu.vecInstQueueWakeupAccesses               0                       # Number of vector instruction queue wakeup accesses (Count)
system.cpu.intAluAccesses                   222589365                       # Number of integer alu accesses (Count)
system.cpu.fpAluAccesses                      2350065                       # Number of floating point alu accesses (Count)
system.cpu.vecAluAccesses                           0                       # Number of vector alu accesses (Count)
system.cpu.numSquashedInsts                   3500914                       # Number of squashed instructions skipped in execute (Count)
system.cpu.numSwp                                   0                       # Number of swp insts executed (Count)
system.cpu.timesIdled                            5666                       # Number of times that the entire CPU went into an idle state and unscheduled itself (Count)
system.cpu.idleCycles                           19004                       # Total number of cycles that the CPU has spent unscheduled due to idling (Cycle)
system.cpu.MemDepUnit__0.insertedLoads       26047364                       # Number of loads inserted to the mem dependence unit. (Count)
system.cpu.MemDepUnit__0.insertedStores      11831478                       # Number of stores inserted to the mem dependence unit. (Count)
system.cpu.MemDepUnit__0.conflictingLoads      4871419                       # Number of conflicting loads. (Count)
system.cpu.MemDepUnit__0.conflictingStores      3480624                       # Number of conflicting stores. (Count)
system.cpu.MemDepUnit__1.insertedLoads              0                       # Number of loads inserted to the mem dependence unit. (Count)
system.cpu.MemDepUnit__1.insertedStores             0                       # Number of stores inserted to the mem dependence unit. (Count)
system.cpu.MemDepUnit__1.conflictingLoads            0                       # Number of conflicting loads. (Count)
system.cpu.MemDepUnit__1.conflictingStores            0                       # Number of conflicting stores. (Count)
system.cpu.MemDepUnit__2.insertedLoads              0                       # Number of loads inserted to the mem dependence unit. (Count)
system.cpu.MemDepUnit__2.insertedStores             0                       # Number of stores inserted to the mem dependence unit. (Count)
system.cpu.MemDepUnit__2.conflictingLoads            0                       # Number of conflicting loads. (Count)
system.cpu.MemDepUnit__2.conflictingStores            0                       # Number of conflicting stores. (Count)
system.cpu.MemDepUnit__3.insertedLoads              0                       # Number of loads inserted to the mem dependence unit. (Count)
system.cpu.MemDepUnit__3.insertedStores             0                       # Number of stores inserted to the mem dependence unit. (Count)
system.cpu.MemDepUnit__3.conflictingLoads            0                       # Number of conflicting loads. (Count)
system.cpu.MemDepUnit__3.conflictingStores            0                       # Number of conflicting stores. (Count)
system.cpu.branchPred.lookups_0::NoBranch         1767      0.01%      0.01% # Number of BP lookups (Count)
system.cpu.branchPred.lookups_0::Return         66120      0.19%      0.19% # Number of BP lookups (Count)
system.cpu.branchPred.lookups_0::CallDirect        67956      0.19%      0.39% # Number of BP lookups (Count)
system.cpu.branchPred.lookups_0::CallIndirect         1316      0.00%      0.39% # Number of BP lookups (Count)
system.cpu.branchPred.lookups_0::DirectCond     31454739     89.51%     89.90% # Number of BP lookups (Count)
system.cpu.branchPred.lookups_0::DirectUncond      3528617     10.04%     99.94% # Number of BP lookups (Count)
system.cpu.branchPred.lookups_0::IndirectCond            0      0.00%     99.94% # Number of BP lookups (Count)
system.cpu.branchPred.lookups_0::IndirectUncond        20154      0.06%    100.00% # Number of BP lookups (Count)
system.cpu.branchPred.lookups_0::total       35140669                       # Number of BP lookups (Count)
system.cpu.branchPred.squashes_0::NoBranch         1483      0.01%      0.01% # Number of branches that got squashed (completely removed) as an earlier branch was mispredicted. (Count)
system.cpu.branchPred.squashes_0::Return        24750      0.13%      0.14% # Number of branches that got squashed (completely removed) as an earlier branch was mispredicted. (Count)
system.cpu.branchPred.squashes_0::CallDirect        27198      0.15%      0.29% # Number of branches that got squashed (completely removed) as an earlier branch was mispredicted. (Count)
system.cpu.branchPred.squashes_0::CallIndirect          699      0.00%      0.29% # Number of branches that got squashed (completely removed) as an earlier branch was mispredicted. (Count)
system.cpu.branchPred.squashes_0::DirectCond     17105373     91.45%     91.74% # Number of branches that got squashed (completely removed) as an earlier branch was mispredicted. (Count)
system.cpu.branchPred.squashes_0::DirectUncond      1530364      8.18%     99.92% # Number of branches that got squashed (completely removed) as an earlier branch was mispredicted. (Count)
system.cpu.branchPred.squashes_0::IndirectCond            0      0.00%     99.92% # Number of branches that got squashed (completely removed) as an earlier branch was mispredicted. (Count)
system.cpu.branchPred.squashes_0::IndirectUncond        14522      0.08%    100.00% # Number of branches that got squashed (completely removed) as an earlier branch was mispredicted. (Count)
system.cpu.branchPred.squashes_0::total      18704389                       # Number of branches that got squashed (completely removed) as an earlier branch was mispredicted. (Count)
system.cpu.branchPred.corrected_0::NoBranch          439      0.02%      0.02% # Number of branches that got corrected but not yet commited. Branches get corrected by decode or after execute. Also a branch misprediction can be detected out-of-order. Therefore, a corrected branch might not end up beeing committed in case an even earlier branch was mispredicted (Count)
system.cpu.branchPred.corrected_0::Return           15      0.00%      0.02% # Number of branches that got corrected but not yet commited. Branches get corrected by decode or after execute. Also a branch misprediction can be detected out-of-order. Therefore, a corrected branch might not end up beeing committed in case an even earlier branch was mispredicted (Count)
system.cpu.branchPred.corrected_0::CallDirect          893      0.05%      0.07% # Number of branches that got corrected but not yet commited. Branches get corrected by decode or after execute. Also a branch misprediction can be detected out-of-order. Therefore, a corrected branch might not end up beeing committed in case an even earlier branch was mispredicted (Count)
system.cpu.branchPred.corrected_0::CallIndirect          253      0.01%      0.08% # Number of branches that got corrected but not yet commited. Branches get corrected by decode or after execute. Also a branch misprediction can be detected out-of-order. Therefore, a corrected branch might not end up beeing committed in case an even earlier branch was mispredicted (Count)
system.cpu.branchPred.corrected_0::DirectCond      1871705     96.00%     96.09% # Number of branches that got corrected but not yet commited. Branches get corrected by decode or after execute. Also a branch misprediction can be detected out-of-order. Therefore, a corrected branch might not end up beeing committed in case an even earlier branch was mispredicted (Count)
system.cpu.branchPred.corrected_0::DirectUncond        75038      3.85%     99.93% # Number of branches that got corrected but not yet commited. Branches get corrected by decode or after execute. Also a branch misprediction can be detected out-of-order. Therefore, a corrected branch might not end up beeing committed in case an even earlier branch was mispredicted (Count)
system.cpu.branchPred.corrected_0::IndirectCond            0      0.00%     99.93% # Number of branches that got corrected but not yet commited. Branches get corrected by decode or after execute. Also a branch misprediction can be detected out-of-order. Therefore, a corrected branch might not end up beeing committed in case an even earlier branch was mispredicted (Count)
system.cpu.branchPred.corrected_0::IndirectUncond         1269      0.07%    100.00% # Number of branches that got corrected but not yet commited. Branches get corrected by decode or after execute. Also a branch misprediction can be detected out-of-order. Therefore, a corrected branch might not end up beeing committed in case an even earlier branch was mispredicted (Count)
system.cpu.branchPred.corrected_0::total      1949612                       # Number of branches that got corrected but not yet commited. Branches get corrected by decode or after execute. Also a branch misprediction can be detected out-of-order. Therefore, a corrected branch might not end up beeing committed in case an even earlier branch was mispredicted (Count)
system.cpu.branchPred.earlyResteers_0::NoBranch            0                       # Number of branches that got redirected after decode. (Count)
system.cpu.branchPred.earlyResteers_0::Return            0                       # Number of branches that got redirected after decode. (Count)
system.cpu.branchPred.earlyResteers_0::CallDirect            0                       # Number of branches that got redirected after decode. (Count)
system.cpu.branchPred.earlyResteers_0::CallIndirect            0                       # Number of branches that got redirected after decode. (Count)
system.cpu.branchPred.earlyResteers_0::DirectCond            0                       # Number of branches that got redirected after decode. (Count)
system.cpu.branchPred.earlyResteers_0::DirectUncond            0                       # Number of branches that got redirected after decode. (Count)
system.cpu.branchPred.earlyResteers_0::IndirectCond            0                       # Number of branches that got redirected after decode. (Count)
system.cpu.branchPred.earlyResteers_0::IndirectUncond            0                       # Number of branches that got redirected after decode. (Count)
system.cpu.branchPred.earlyResteers_0::total            0                       # Number of branches that got redirected after decode. (Count)
system.cpu.branchPred.committed_0::NoBranch          284      0.00%      0.00% # Number of branches finally committed  (Count)
system.cpu.branchPred.committed_0::Return        41369      0.25%      0.25% # Number of branches finally committed  (Count)
system.cpu.branchPred.committed_0::CallDirect        40757      0.25%      0.50% # Number of branches finally committed  (Count)
system.cpu.branchPred.committed_0::CallIndirect          617      0.00%      0.51% # Number of branches finally committed  (Count)
system.cpu.branchPred.committed_0::DirectCond     14349366     87.30%     87.81% # Number of branches finally committed  (Count)
system.cpu.branchPred.committed_0::DirectUncond      1998253     12.16%     99.97% # Number of branches finally committed  (Count)
system.cpu.branchPred.committed_0::IndirectCond            0      0.00%     99.97% # Number of branches finally committed  (Count)
system.cpu.branchPred.committed_0::IndirectUncond         5632      0.03%    100.00% # Number of branches finally committed  (Count)
system.cpu.branchPred.committed_0::total     16436278                       # Number of branches finally committed  (Count)
system.cpu.branchPred.mispredicted_0::NoBranch          284      0.02%      0.02% # Number of committed branches that were mispredicted. (Count)
system.cpu.branchPred.mispredicted_0::Return            0      0.00%      0.02% # Number of committed branches that were mispredicted. (Count)
system.cpu.branchPred.mispredicted_0::CallDirect          539      0.03%      0.05% # Number of committed branches that were mispredicted. (Count)
system.cpu.branchPred.mispredicted_0::CallIndirect          228      0.01%      0.07% # Number of committed branches that were mispredicted. (Count)
system.cpu.branchPred.mispredicted_0::DirectCond      1567007     97.67%     97.74% # Number of committed branches that were mispredicted. (Count)
system.cpu.branchPred.mispredicted_0::DirectUncond        35055      2.19%     99.92% # Number of committed branches that were mispredicted. (Count)
system.cpu.branchPred.mispredicted_0::IndirectCond            0      0.00%     99.92% # Number of committed branches that were mispredicted. (Count)
system.cpu.branchPred.mispredicted_0::IndirectUncond         1209      0.08%    100.00% # Number of committed branches that were mispredicted. (Count)
system.cpu.branchPred.mispredicted_0::total      1604322                       # Number of committed branches that were mispredicted. (Count)
system.cpu.branchPred.targetProvider_0::NoTarget     13874663     39.48%     39.48% # The component providing the target for taken branches (Count)
system.cpu.branchPred.targetProvider_0::BTB     21192483     60.31%     99.79% # The component providing the target for taken branches (Count)
system.cpu.branchPred.targetProvider_0::RAS        66118      0.19%     99.98% # The component providing the target for taken branches (Count)
system.cpu.branchPred.targetProvider_0::Indirect         7405      0.02%    100.00% # The component providing the target for taken branches (Count)
system.cpu.branchPred.targetProvider_0::total     35140669                       # The component providing the target for taken branches (Count)
system.cpu.branchPred.targetWrong_0::NoBranch       917518     47.11%     47.11% # Number of branches where the target was incorrect or not available at prediction time. (Count)
system.cpu.branchPred.targetWrong_0::Return      1029764     52.88%     99.99% # Number of branches where the target was incorrect or not available at prediction time. (Count)
system.cpu.branchPred.targetWrong_0::CallDirect           15      0.00%     99.99% # Number of branches where the target was incorrect or not available at prediction time. (Count)
system.cpu.branchPred.targetWrong_0::CallIndirect          154      0.01%    100.00% # Number of branches where the target was incorrect or not available at prediction time. (Count)
system.cpu.branchPred.targetWrong_0::DirectCond            0      0.00%    100.00% # Number of branches where the target was incorrect or not available at prediction time. (Count)
system.cpu.branchPred.targetWrong_0::DirectUncond            0      0.00%    100.00% # Number of branches where the target was incorrect or not available at prediction time. (Count)
system.cpu.branchPred.targetWrong_0::IndirectCond            0      0.00%    100.00% # Number of branches where the target was incorrect or not available at prediction time. (Count)
system.cpu.branchPred.targetWrong_0::IndirectUncond            0      0.00%    100.00% # Number of branches where the target was incorrect or not available at prediction time. (Count)
system.cpu.branchPred.targetWrong_0::total      1947451                       # Number of branches where the target was incorrect or not available at prediction time. (Count)
system.cpu.branchPred.condPredicted          31456506                       # Number of conditional branches predicted (Count)
system.cpu.branchPred.condPredictedTaken     17629189                       # Number of conditional branches predicted as taken (Count)
system.cpu.branchPred.condIncorrect           1949612                       # Number of conditional branches incorrect (Count)
system.cpu.branchPred.predTakenBTBMiss           2465                       # Number of branches predicted taken but missed in BTB (Count)
system.cpu.branchPred.NotTakenMispredicted      1048884                       # Number branches predicted 'not taken' but turned out to be taken (Count)
system.cpu.branchPred.TakenMispredicted        900728                       # Number branches predicted taken but are actually not taken (Count)
system.cpu.branchPred.BTBLookups             35140669                       # Number of BTB lookups (Count)
system.cpu.branchPred.BTBUpdates              1046908                       # Number of BTB updates (Count)
system.cpu.branchPred.BTBHits                31846523                       # Number of BTB hits (Count)
system.cpu.branchPred.BTBHitRatio            0.906258                       # BTB Hit Ratio (Ratio)
system.cpu.branchPred.BTBMispredicted            3731                       # Number BTB mispredictions. No target found or target wrong (Count)
system.cpu.branchPred.indirectLookups           21470                       # Number of indirect predictor lookups. (Count)
system.cpu.branchPred.indirectHits               7405                       # Number of indirect target hits. (Count)
system.cpu.branchPred.indirectMisses            14065                       # Number of indirect misses. (Count)
system.cpu.branchPred.indirectMispredicted            0                       # Number of mispredicted indirect branches. (Count)
system.cpu.branchPred.btb.lookups::NoBranch         1767      0.01%      0.01% # Number of BTB lookups (Count)
system.cpu.branchPred.btb.lookups::Return        66120      0.19%      0.19% # Number of BTB lookups (Count)
system.cpu.branchPred.btb.lookups::CallDirect        67956      0.19%      0.39% # Number of BTB lookups (Count)
system.cpu.branchPred.btb.lookups::CallIndirect         1316      0.00%      0.39% # Number of BTB lookups (Count)
system.cpu.branchPred.btb.lookups::DirectCond     31454739     89.51%     89.90% # Number of BTB lookups (Count)
system.cpu.branchPred.btb.lookups::DirectUncond      3528617     10.04%     99.94% # Number of BTB lookups (Count)
system.cpu.branchPred.btb.lookups::IndirectCond            0      0.00%     99.94% # Number of BTB lookups (Count)
system.cpu.branchPred.btb.lookups::IndirectUncond        20154      0.06%    100.00% # Number of BTB lookups (Count)
system.cpu.branchPred.btb.lookups::total     35140669                       # Number of BTB lookups (Count)
system.cpu.branchPred.btb.misses::NoBranch          386      0.01%      0.01% # Number of BTB misses (Count)
system.cpu.branchPred.btb.misses::Return        66120      2.01%      2.02% # Number of BTB misses (Count)
system.cpu.branchPred.btb.misses::CallDirect         1342      0.04%      2.06% # Number of BTB misses (Count)
system.cpu.branchPred.btb.misses::CallIndirect         1316      0.04%      2.10% # Number of BTB misses (Count)
system.cpu.branchPred.btb.misses::DirectCond      3203460     97.25%     99.35% # Number of BTB misses (Count)
system.cpu.branchPred.btb.misses::DirectUncond         1368      0.04%     99.39% # Number of BTB misses (Count)
system.cpu.branchPred.btb.misses::IndirectCond            0      0.00%     99.39% # Number of BTB misses (Count)
system.cpu.branchPred.btb.misses::IndirectUncond        20154      0.61%    100.00% # Number of BTB misses (Count)
system.cpu.branchPred.btb.misses::total       3294146                       # Number of BTB misses (Count)
system.cpu.branchPred.btb.updates::NoBranch            0      0.00%      0.00% # Number of BTB updates (Count)
system.cpu.branchPred.btb.updates::Return            0      0.00%      0.00% # Number of BTB updates (Count)
system.cpu.branchPred.btb.updates::CallDirect          893      0.09%      0.09% # Number of BTB updates (Count)
system.cpu.branchPred.btb.updates::CallIndirect            0      0.00%      0.09% # Number of BTB updates (Count)
system.cpu.branchPred.btb.updates::DirectCond       970977     92.75%     92.83% # Number of BTB updates (Count)
system.cpu.branchPred.btb.updates::DirectUncond        75038      7.17%    100.00% # Number of BTB updates (Count)
system.cpu.branchPred.btb.updates::IndirectCond            0      0.00%    100.00% # Number of BTB updates (Count)
system.cpu.branchPred.btb.updates::IndirectUncond            0      0.00%    100.00% # Number of BTB updates (Count)
system.cpu.branchPred.btb.updates::total      1046908                       # Number of BTB updates (Count)
system.cpu.branchPred.btb.mispredict::NoBranch            0      0.00%      0.00% # Number of BTB mispredictions. No target found or target wrong. (Count)
system.cpu.branchPred.btb.mispredict::Return            0      0.00%      0.00% # Number of BTB mispredictions. No target found or target wrong. (Count)
system.cpu.branchPred.btb.mispredict::CallDirect          893      0.09%      0.09% # Number of BTB mispredictions. No target found or target wrong. (Count)
system.cpu.branchPred.btb.mispredict::CallIndirect            0      0.00%      0.09% # Number of BTB mispredictions. No target found or target wrong. (Count)
system.cpu.branchPred.btb.mispredict::DirectCond       970977     92.75%     92.83% # Number of BTB mispredictions. No target found or target wrong. (Count)
system.cpu.branchPred.btb.mispredict::DirectUncond        75038      7.17%    100.00% # Number of BTB mispredictions. No target found or target wrong. (Count)
system.cpu.branchPred.btb.mispredict::IndirectCond            0      0.00%    100.00% # Number of BTB mispredictions. No target found or target wrong. (Count)
system.cpu.branchPred.btb.mispredict::IndirectUncond            0      0.00%    100.00% # Number of BTB mispredictions. No target found or target wrong. (Count)
system.cpu.branchPred.btb.mispredict::total      1046908                       # Number of BTB mispredictions. No target found or target wrong. (Count)
system.cpu.branchPred.btb.power_state.pwrStateResidencyTicks::UNDEFINED 1046274589148                       # Cumulative time (in ticks) in various power states (Tick)
system.cpu.branchPred.indirectBranchPred.lookups        21470                       # Number of lookups (Count)
system.cpu.branchPred.indirectBranchPred.hits         7405                       # Number of hits of a tag (Count)
system.cpu.branchPred.indirectBranchPred.misses        14065                       # Number of misses (Count)
system.cpu.branchPred.indirectBranchPred.targetRecords         1522                       # Number of targets that where recorded/installed in the cache (Count)
system.cpu.branchPred.indirectBranchPred.indirectRecords        22992                       # Number of indirect branches/calls recorded in the indirect hist (Count)
system.cpu.branchPred.indirectBranchPred.speculativeOverflows            1                       # Number of times more than the allowed capacity for speculative branches/calls where in flight and destroy the path history (Count)
system.cpu.branchPred.ras.pushes                94022                       # Number of times a PC was pushed onto the RAS (Count)
system.cpu.branchPred.ras.pops                  94017                       # Number of times a PC was poped from the RAS (Count)
system.cpu.branchPred.ras.squashes              52647                       # Number of times the stack operation was squashed due to wrong speculation. (Count)
system.cpu.branchPred.ras.used                  41369                       # Number of times the RAS is the provider (Count)
system.cpu.branchPred.ras.correct               41369                       # Number of times the RAS is the provider and the prediction is correct (Count)
system.cpu.branchPred.ras.incorrect                 0                       # Number of times the RAS is the provider and the prediction is wrong (Count)
system.cpu.commit.commitSquashedInsts        97249383                       # The number of squashed insts skipped by commit (Count)
system.cpu.commit.commitNonSpecStalls            2387                       # The number of times commit has been forced to stall to communicate backwards (Count)
system.cpu.commit.branchMispredicts           1818196                       # The number of times a branch was mispredicted (Count)
system.cpu.commit.numCommittedDist::samples     64504122                       # Number of insts commited each cycle (Count)
system.cpu.commit.numCommittedDist::mean     2.371337                       # Number of insts commited each cycle (Count)
system.cpu.commit.numCommittedDist::stdev     3.012843                       # Number of insts commited each cycle (Count)
system.cpu.commit.numCommittedDist::underflows            0      0.00%      0.00% # Number of insts commited each cycle (Count)
system.cpu.commit.numCommittedDist::0        28009934     43.42%     43.42% # Number of insts commited each cycle (Count)
system.cpu.commit.numCommittedDist::1        11145228     17.28%     60.70% # Number of insts commited each cycle (Count)
system.cpu.commit.numCommittedDist::2         3203202      4.97%     65.67% # Number of insts commited each cycle (Count)
system.cpu.commit.numCommittedDist::3         4747043      7.36%     73.03% # Number of insts commited each cycle (Count)
system.cpu.commit.numCommittedDist::4         2059598      3.19%     76.22% # Number of insts commited each cycle (Count)
system.cpu.commit.numCommittedDist::5         1792665      2.78%     79.00% # Number of insts commited each cycle (Count)
system.cpu.commit.numCommittedDist::6         1445814      2.24%     81.24% # Number of insts commited each cycle (Count)
system.cpu.commit.numCommittedDist::7         1513423      2.35%     83.59% # Number of insts commited each cycle (Count)
system.cpu.commit.numCommittedDist::8        10587215     16.41%    100.00% # Number of insts commited each cycle (Count)
system.cpu.commit.numCommittedDist::overflows            0      0.00%    100.00% # Number of insts commited each cycle (Count)
system.cpu.commit.numCommittedDist::min_value            0                       # Number of insts commited each cycle (Count)
system.cpu.commit.numCommittedDist::max_value            8                       # Number of insts commited each cycle (Count)
system.cpu.commit.numCommittedDist::total     64504122                       # Number of insts commited each cycle (Count)
system.cpu.commit.amos                              0                       # Number of atomic instructions committed (Count)
system.cpu.commit.membars                         988                       # Number of memory barriers committed (Count)
system.cpu.commit.functionCalls                 41374                       # Number of function calls committed. (Count)
system.cpu.commit.committedInstType_0::No_OpClass       238500      0.16%      0.16% # Class of committed instruction (Count)
system.cpu.commit.committedInstType_0::IntAlu    129891782     84.92%     85.07% # Class of committed instruction (Count)
system.cpu.commit.committedInstType_0::IntMult          179      0.00%     85.07% # Class of committed instruction (Count)
system.cpu.commit.committedInstType_0::IntDiv        39169      0.03%     85.10% # Class of committed instruction (Count)
system.cpu.commit.committedInstType_0::FloatAdd       175248      0.11%     85.21% # Class of committed instruction (Count)
system.cpu.commit.committedInstType_0::FloatCmp            0      0.00%     85.21% # Class of committed instruction (Count)
system.cpu.commit.committedInstType_0::FloatCvt         1600      0.00%     85.22% # Class of committed instruction (Count)
system.cpu.commit.committedInstType_0::FloatMult            0      0.00%     85.22% # Class of committed instruction (Count)
system.cpu.commit.committedInstType_0::FloatMultAcc            0      0.00%     85.22% # Class of committed instruction (Count)
system.cpu.commit.committedInstType_0::FloatDiv            0      0.00%     85.22% # Class of committed instruction (Count)
system.cpu.commit.committedInstType_0::FloatMisc            0      0.00%     85.22% # Class of committed instruction (Count)
system.cpu.commit.committedInstType_0::FloatSqrt            0      0.00%     85.22% # Class of committed instruction (Count)
system.cpu.commit.committedInstType_0::SimdAdd         6582      0.00%     85.22% # Class of committed instruction (Count)
system.cpu.commit.committedInstType_0::SimdAddAcc            0      0.00%     85.22% # Class of committed instruction (Count)
system.cpu.commit.committedInstType_0::SimdAlu        13407      0.01%     85.23% # Class of committed instruction (Count)
system.cpu.commit.committedInstType_0::SimdCmp           30      0.00%     85.23% # Class of committed instruction (Count)
system.cpu.commit.committedInstType_0::SimdCvt        13700      0.01%     85.24% # Class of committed instruction (Count)
system.cpu.commit.committedInstType_0::SimdMisc       199644      0.13%     85.37% # Class of committed instruction (Count)
system.cpu.commit.committedInstType_0::SimdMult            0      0.00%     85.37% # Class of committed instruction (Count)
system.cpu.commit.committedInstType_0::SimdMultAcc            0      0.00%     85.37% # Class of committed instruction (Count)
system.cpu.commit.committedInstType_0::SimdMatMultAcc            0      0.00%     85.37% # Class of committed instruction (Count)
system.cpu.commit.committedInstType_0::SimdShift         1997      0.00%     85.37% # Class of committed instruction (Count)
system.cpu.commit.committedInstType_0::SimdShiftAcc            0      0.00%     85.37% # Class of committed instruction (Count)
system.cpu.commit.committedInstType_0::SimdDiv            0      0.00%     85.37% # Class of committed instruction (Count)
system.cpu.commit.committedInstType_0::SimdSqrt            0      0.00%     85.37% # Class of committed instruction (Count)
system.cpu.commit.committedInstType_0::SimdFloatAdd           29      0.00%     85.37% # Class of committed instruction (Count)
system.cpu.commit.committedInstType_0::SimdFloatAlu            0      0.00%     85.37% # Class of committed instruction (Count)
system.cpu.commit.committedInstType_0::SimdFloatCmp            0      0.00%     85.37% # Class of committed instruction (Count)
system.cpu.commit.committedInstType_0::SimdFloatCvt           58      0.00%     85.37% # Class of committed instruction (Count)
system.cpu.commit.committedInstType_0::SimdFloatDiv           29      0.00%     85.37% # Class of committed instruction (Count)
system.cpu.commit.committedInstType_0::SimdFloatMisc            0      0.00%     85.37% # Class of committed instruction (Count)
system.cpu.commit.committedInstType_0::SimdFloatMult            0      0.00%     85.37% # Class of committed instruction (Count)
system.cpu.commit.committedInstType_0::SimdFloatMultAcc            0      0.00%     85.37% # Class of committed instruction (Count)
system.cpu.commit.committedInstType_0::SimdFloatMatMultAcc            0      0.00%     85.37% # Class of committed instruction (Count)
system.cpu.commit.committedInstType_0::SimdFloatSqrt            0      0.00%     85.37% # Class of committed instruction (Count)
system.cpu.commit.committedInstType_0::SimdReduceAdd            0      0.00%     85.37% # Class of committed instruction (Count)
system.cpu.commit.committedInstType_0::SimdReduceAlu            0      0.00%     85.37% # Class of committed instruction (Count)
system.cpu.commit.committedInstType_0::SimdReduceCmp            0      0.00%     85.37% # Class of committed instruction (Count)
system.cpu.commit.committedInstType_0::SimdFloatReduceAdd            0      0.00%     85.37% # Class of committed instruction (Count)
system.cpu.commit.committedInstType_0::SimdFloatReduceCmp            0      0.00%     85.37% # Class of committed instruction (Count)
system.cpu.commit.committedInstType_0::SimdAes            0      0.00%     85.37% # Class of committed instruction (Count)
system.cpu.commit.committedInstType_0::SimdAesMix            0      0.00%     85.37% # Class of committed instruction (Count)
system.cpu.commit.committedInstType_0::SimdSha1Hash            0      0.00%     85.37% # Class of committed instruction (Count)
system.cpu.commit.committedInstType_0::SimdSha1Hash2            0      0.00%     85.37% # Class of committed instruction (Count)
system.cpu.commit.committedInstType_0::SimdSha256Hash            0      0.00%     85.37% # Class of committed instruction (Count)
system.cpu.commit.committedInstType_0::SimdSha256Hash2            0      0.00%     85.37% # Class of committed instruction (Count)
system.cpu.commit.committedInstType_0::SimdShaSigma2            0      0.00%     85.37% # Class of committed instruction (Count)
system.cpu.commit.committedInstType_0::SimdShaSigma3            0      0.00%     85.37% # Class of committed instruction (Count)
system.cpu.commit.committedInstType_0::SimdPredAlu            0      0.00%     85.37% # Class of committed instruction (Count)
system.cpu.commit.committedInstType_0::Matrix            0      0.00%     85.37% # Class of committed instruction (Count)
system.cpu.commit.committedInstType_0::MatrixMov            0      0.00%     85.37% # Class of committed instruction (Count)
system.cpu.commit.committedInstType_0::MatrixOP            0      0.00%     85.37% # Class of committed instruction (Count)
system.cpu.commit.committedInstType_0::MemRead     14606319      9.55%     94.92% # Class of committed instruction (Count)
system.cpu.commit.committedInstType_0::MemWrite      6220117      4.07%     98.98% # Class of committed instruction (Count)
system.cpu.commit.committedInstType_0::FloatMemRead       201006      0.13%     99.12% # Class of committed instruction (Count)
system.cpu.commit.committedInstType_0::FloatMemWrite      1351647      0.88%    100.00% # Class of committed instruction (Count)
system.cpu.commit.committedInstType_0::IprAccess            0      0.00%    100.00% # Class of committed instruction (Count)
system.cpu.commit.committedInstType_0::InstPrefetch            0      0.00%    100.00% # Class of committed instruction (Count)
system.cpu.commit.committedInstType_0::SimdUnitStrideLoad            0      0.00%    100.00% # Class of committed instruction (Count)
system.cpu.commit.committedInstType_0::SimdUnitStrideStore            0      0.00%    100.00% # Class of committed instruction (Count)
system.cpu.commit.committedInstType_0::SimdUnitStrideMaskLoad            0      0.00%    100.00% # Class of committed instruction (Count)
system.cpu.commit.committedInstType_0::SimdUnitStrideMaskStore            0      0.00%    100.00% # Class of committed instruction (Count)
system.cpu.commit.committedInstType_0::SimdStridedLoad            0      0.00%    100.00% # Class of committed instruction (Count)
system.cpu.commit.committedInstType_0::SimdStridedStore            0      0.00%    100.00% # Class of committed instruction (Count)
system.cpu.commit.committedInstType_0::SimdIndexedLoad            0      0.00%    100.00% # Class of committed instruction (Count)
system.cpu.commit.committedInstType_0::SimdIndexedStore            0      0.00%    100.00% # Class of committed instruction (Count)
system.cpu.commit.committedInstType_0::SimdWholeRegisterLoad            0      0.00%    100.00% # Class of committed instruction (Count)
system.cpu.commit.committedInstType_0::SimdWholeRegisterStore            0      0.00%    100.00% # Class of committed instruction (Count)
system.cpu.commit.committedInstType_0::SimdUnitStrideFaultOnlyFirstLoad            0      0.00%    100.00% # Class of committed instruction (Count)
system.cpu.commit.committedInstType_0::SimdUnitStrideSegmentedLoad            0      0.00%    100.00% # Class of committed instruction (Count)
system.cpu.commit.committedInstType_0::SimdUnitStrideSegmentedStore            0      0.00%    100.00% # Class of committed instruction (Count)
system.cpu.commit.committedInstType_0::SimdExt            0      0.00%    100.00% # Class of committed instruction (Count)
system.cpu.commit.committedInstType_0::SimdFloatExt            0      0.00%    100.00% # Class of committed instruction (Count)
system.cpu.commit.committedInstType_0::SimdConfig            0      0.00%    100.00% # Class of committed instruction (Count)
system.cpu.commit.committedInstType_0::total    152961043                       # Class of committed instruction (Count)
system.cpu.commit.commitEligibleSamples      10587215                       # number cycles where commit BW limit reached (Cycle)
system.cpu.commitStats0.numInsts             96191062                       # Number of instructions committed (thread level) (Count)
system.cpu.commitStats0.numOps              152961043                       # Number of ops (including micro ops) committed (thread level) (Count)
system.cpu.commitStats0.numInstsNotNOP       96191062                       # Number of instructions committed excluding NOPs or prefetches (Count)
system.cpu.commitStats0.numOpsNotNOP        152961043                       # Number of Ops (including micro ops) Simulated (Count)
system.cpu.commitStats0.cpi                  0.815799                       # CPI: cycles per instruction (thread level) ((Cycle/Count))
system.cpu.commitStats0.ipc                  1.225792                       # IPC: instructions per cycle (thread level) ((Count/Cycle))
system.cpu.commitStats0.numMemRefs           22379089                       # Number of memory references committed (Count)
system.cpu.commitStats0.numFpInsts            2025851                       # Number of float instructions (Count)
system.cpu.commitStats0.numIntInsts         152384941                       # Number of integer instructions (Count)
system.cpu.commitStats0.numLoadInsts         14807325                       # Number of load instructions (Count)
system.cpu.commitStats0.numStoreInsts         7571764                       # Number of store instructions (Count)
system.cpu.commitStats0.numVecInsts                 0                       # Number of vector instructions (Count)
system.cpu.commitStats0.committedInstType::No_OpClass       238500      0.16%      0.16% # Class of committed instruction. (Count)
system.cpu.commitStats0.committedInstType::IntAlu    129891782     84.92%     85.07% # Class of committed instruction. (Count)
system.cpu.commitStats0.committedInstType::IntMult          179      0.00%     85.07% # Class of committed instruction. (Count)
system.cpu.commitStats0.committedInstType::IntDiv        39169      0.03%     85.10% # Class of committed instruction. (Count)
system.cpu.commitStats0.committedInstType::FloatAdd       175248      0.11%     85.21% # Class of committed instruction. (Count)
system.cpu.commitStats0.committedInstType::FloatCmp            0      0.00%     85.21% # Class of committed instruction. (Count)
system.cpu.commitStats0.committedInstType::FloatCvt         1600      0.00%     85.22% # Class of committed instruction. (Count)
system.cpu.commitStats0.committedInstType::FloatMult            0      0.00%     85.22% # Class of committed instruction. (Count)
system.cpu.commitStats0.committedInstType::FloatMultAcc            0      0.00%     85.22% # Class of committed instruction. (Count)
system.cpu.commitStats0.committedInstType::FloatDiv            0      0.00%     85.22% # Class of committed instruction. (Count)
system.cpu.commitStats0.committedInstType::FloatMisc            0      0.00%     85.22% # Class of committed instruction. (Count)
system.cpu.commitStats0.committedInstType::FloatSqrt            0      0.00%     85.22% # Class of committed instruction. (Count)
system.cpu.commitStats0.committedInstType::SimdAdd         6582      0.00%     85.22% # Class of committed instruction. (Count)
system.cpu.commitStats0.committedInstType::SimdAddAcc            0      0.00%     85.22% # Class of committed instruction. (Count)
system.cpu.commitStats0.committedInstType::SimdAlu        13407      0.01%     85.23% # Class of committed instruction. (Count)
system.cpu.commitStats0.committedInstType::SimdCmp           30      0.00%     85.23% # Class of committed instruction. (Count)
system.cpu.commitStats0.committedInstType::SimdCvt        13700      0.01%     85.24% # Class of committed instruction. (Count)
system.cpu.commitStats0.committedInstType::SimdMisc       199644      0.13%     85.37% # Class of committed instruction. (Count)
system.cpu.commitStats0.committedInstType::SimdMult            0      0.00%     85.37% # Class of committed instruction. (Count)
system.cpu.commitStats0.committedInstType::SimdMultAcc            0      0.00%     85.37% # Class of committed instruction. (Count)
system.cpu.commitStats0.committedInstType::SimdMatMultAcc            0      0.00%     85.37% # Class of committed instruction. (Count)
system.cpu.commitStats0.committedInstType::SimdShift         1997      0.00%     85.37% # Class of committed instruction. (Count)
system.cpu.commitStats0.committedInstType::SimdShiftAcc            0      0.00%     85.37% # Class of committed instruction. (Count)
system.cpu.commitStats0.committedInstType::SimdDiv            0      0.00%     85.37% # Class of committed instruction. (Count)
system.cpu.commitStats0.committedInstType::SimdSqrt            0      0.00%     85.37% # Class of committed instruction. (Count)
system.cpu.commitStats0.committedInstType::SimdFloatAdd           29      0.00%     85.37% # Class of committed instruction. (Count)
system.cpu.commitStats0.committedInstType::SimdFloatAlu            0      0.00%     85.37% # Class of committed instruction. (Count)
system.cpu.commitStats0.committedInstType::SimdFloatCmp            0      0.00%     85.37% # Class of committed instruction. (Count)
system.cpu.commitStats0.committedInstType::SimdFloatCvt           58      0.00%     85.37% # Class of committed instruction. (Count)
system.cpu.commitStats0.committedInstType::SimdFloatDiv           29      0.00%     85.37% # Class of committed instruction. (Count)
system.cpu.commitStats0.committedInstType::SimdFloatMisc            0      0.00%     85.37% # Class of committed instruction. (Count)
system.cpu.commitStats0.committedInstType::SimdFloatMult            0      0.00%     85.37% # Class of committed instruction. (Count)
system.cpu.commitStats0.committedInstType::SimdFloatMultAcc            0      0.00%     85.37% # Class of committed instruction. (Count)
system.cpu.commitStats0.committedInstType::SimdFloatMatMultAcc            0      0.00%     85.37% # Class of committed instruction. (Count)
system.cpu.commitStats0.committedInstType::SimdFloatSqrt            0      0.00%     85.37% # Class of committed instruction. (Count)
system.cpu.commitStats0.committedInstType::SimdReduceAdd            0      0.00%     85.37% # Class of committed instruction. (Count)
system.cpu.commitStats0.committedInstType::SimdReduceAlu            0      0.00%     85.37% # Class of committed instruction. (Count)
system.cpu.commitStats0.committedInstType::SimdReduceCmp            0      0.00%     85.37% # Class of committed instruction. (Count)
system.cpu.commitStats0.committedInstType::SimdFloatReduceAdd            0      0.00%     85.37% # Class of committed instruction. (Count)
system.cpu.commitStats0.committedInstType::SimdFloatReduceCmp            0      0.00%     85.37% # Class of committed instruction. (Count)
system.cpu.commitStats0.committedInstType::SimdAes            0      0.00%     85.37% # Class of committed instruction. (Count)
system.cpu.commitStats0.committedInstType::SimdAesMix            0      0.00%     85.37% # Class of committed instruction. (Count)
system.cpu.commitStats0.committedInstType::SimdSha1Hash            0      0.00%     85.37% # Class of committed instruction. (Count)
system.cpu.commitStats0.committedInstType::SimdSha1Hash2            0      0.00%     85.37% # Class of committed instruction. (Count)
system.cpu.commitStats0.committedInstType::SimdSha256Hash            0      0.00%     85.37% # Class of committed instruction. (Count)
system.cpu.commitStats0.committedInstType::SimdSha256Hash2            0      0.00%     85.37% # Class of committed instruction. (Count)
system.cpu.commitStats0.committedInstType::SimdShaSigma2            0      0.00%     85.37% # Class of committed instruction. (Count)
system.cpu.commitStats0.committedInstType::SimdShaSigma3            0      0.00%     85.37% # Class of committed instruction. (Count)
system.cpu.commitStats0.committedInstType::SimdPredAlu            0      0.00%     85.37% # Class of committed instruction. (Count)
system.cpu.commitStats0.committedInstType::Matrix            0      0.00%     85.37% # Class of committed instruction. (Count)
system.cpu.commitStats0.committedInstType::MatrixMov            0      0.00%     85.37% # Class of committed instruction. (Count)
system.cpu.commitStats0.committedInstType::MatrixOP            0      0.00%     85.37% # Class of committed instruction. (Count)
system.cpu.commitStats0.committedInstType::MemRead     14606319      9.55%     94.92% # Class of committed instruction. (Count)
system.cpu.commitStats0.committedInstType::MemWrite      6220117      4.07%     98.98% # Class of committed instruction. (Count)
system.cpu.commitStats0.committedInstType::FloatMemRead       201006      0.13%     99.12% # Class of committed instruction. (Count)
system.cpu.commitStats0.committedInstType::FloatMemWrite      1351647      0.88%    100.00% # Class of committed instruction. (Count)
system.cpu.commitStats0.committedInstType::IprAccess            0      0.00%    100.00% # Class of committed instruction. (Count)
system.cpu.commitStats0.committedInstType::InstPrefetch            0      0.00%    100.00% # Class of committed instruction. (Count)
system.cpu.commitStats0.committedInstType::SimdUnitStrideLoad            0      0.00%    100.00% # Class of committed instruction. (Count)
system.cpu.commitStats0.committedInstType::SimdUnitStrideStore            0      0.00%    100.00% # Class of committed instruction. (Count)
system.cpu.commitStats0.committedInstType::SimdUnitStrideMaskLoad            0      0.00%    100.00% # Class of committed instruction. (Count)
system.cpu.commitStats0.committedInstType::SimdUnitStrideMaskStore            0      0.00%    100.00% # Class of committed instruction. (Count)
system.cpu.commitStats0.committedInstType::SimdStridedLoad            0      0.00%    100.00% # Class of committed instruction. (Count)
system.cpu.commitStats0.committedInstType::SimdStridedStore            0      0.00%    100.00% # Class of committed instruction. (Count)
system.cpu.commitStats0.committedInstType::SimdIndexedLoad            0      0.00%    100.00% # Class of committed instruction. (Count)
system.cpu.commitStats0.committedInstType::SimdIndexedStore            0      0.00%    100.00% # Class of committed instruction. (Count)
system.cpu.commitStats0.committedInstType::SimdWholeRegisterLoad            0      0.00%    100.00% # Class of committed instruction. (Count)
system.cpu.commitStats0.committedInstType::SimdWholeRegisterStore            0      0.00%    100.00% # Class of committed instruction. (Count)
system.cpu.commitStats0.committedInstType::SimdUnitStrideFaultOnlyFirstLoad            0      0.00%    100.00% # Class of committed instruction. (Count)
system.cpu.commitStats0.committedInstType::SimdUnitStrideSegmentedLoad            0      0.00%    100.00% # Class of committed instruction. (Count)
system.cpu.commitStats0.committedInstType::SimdUnitStrideSegmentedStore            0      0.00%    100.00% # Class of committed instruction. (Count)
system.cpu.commitStats0.committedInstType::SimdExt            0      0.00%    100.00% # Class of committed instruction. (Count)
system.cpu.commitStats0.committedInstType::SimdFloatExt            0      0.00%    100.00% # Class of committed instruction. (Count)
system.cpu.commitStats0.committedInstType::SimdConfig            0      0.00%    100.00% # Class of committed instruction. (Count)
system.cpu.commitStats0.committedInstType::total    152961043                       # Class of committed instruction. (Count)
system.cpu.commitStats0.committedControl::IsControl     16436278                       # Class of control type instructions committed (Count)
system.cpu.commitStats0.committedControl::IsDirectControl     16388376                       # Class of control type instructions committed (Count)
system.cpu.commitStats0.committedControl::IsIndirectControl        47618                       # Class of control type instructions committed (Count)
system.cpu.commitStats0.committedControl::IsCondControl     14349366                       # Class of control type instructions committed (Count)
system.cpu.commitStats0.committedControl::IsUncondControl      2086628                       # Class of control type instructions committed (Count)
system.cpu.commitStats0.committedControl::IsCall        41374                       # Class of control type instructions committed (Count)
system.cpu.commitStats0.committedControl::IsReturn        41369                       # Class of control type instructions committed (Count)
system.cpu.decode.idleCycles                  9225039                       # Number of cycles decode is idle (Cycle)
system.cpu.decode.blockedCycles              28366193                       # Number of cycles decode is blocked (Cycle)
system.cpu.decode.runCycles                  31407731                       # Number of cycles decode is running (Cycle)
system.cpu.decode.unblockCycles               7627888                       # Number of cycles decode is unblocking (Cycle)
system.cpu.decode.squashCycles                1826702                       # Number of cycles decode is squashing (Cycle)
system.cpu.decode.branchResolved             19416371                       # Number of times decode resolved a branch (Count)
system.cpu.decode.branchMispred                135620                       # Number of times decode detected a branch misprediction (Count)
system.cpu.decode.decodedInsts              279659773                       # Number of instructions handled by decode (Count)
system.cpu.decode.squashedInsts                591164                       # Number of squashed instructions handled by decode (Count)
system.cpu.executeStats0.numInsts           214056054                       # Number of executed instructions (Count)
system.cpu.executeStats0.numNop                     0                       # Number of nop insts executed (Count)
system.cpu.executeStats0.numBranches         21939866                       # Number of branches executed (Count)
system.cpu.executeStats0.numLoadInsts        20914851                       # Number of load instructions executed (Count)
system.cpu.executeStats0.numStoreInsts        9285277                       # Number of stores executed (Count)
system.cpu.executeStats0.instRate            2.727782                       # Inst execution rate ((Count/Cycle))
system.cpu.executeStats0.numCCRegReads      100838240                       # Number of times the CC registers were read (Count)
system.cpu.executeStats0.numCCRegWrites      91975251                       # Number of times the CC registers were written (Count)
system.cpu.executeStats0.numFpRegReads        1989309                       # Number of times the floating registers were read (Count)
system.cpu.executeStats0.numFpRegWrites        905732                       # Number of times the floating registers were written (Count)
system.cpu.executeStats0.numIntRegReads     247177642                       # Number of times the integer registers were read (Count)
system.cpu.executeStats0.numIntRegWrites    161768887                       # Number of times the integer registers were written (Count)
system.cpu.executeStats0.numMemRefs          30200128                       # Number of memory refs (Count)
system.cpu.executeStats0.numMiscRegReads     79114905                       # Number of times the Misc registers were read (Count)
system.cpu.executeStats0.numMiscRegWrites          900                       # Number of times the Misc registers were written (Count)
system.cpu.executeStats0.numVecAluAccesses            0                       # Number of vector alu accesses (Count)
system.cpu.executeStats0.numDiscardedOps            0                       # Number of ops (including micro ops) which were discarded before commit (Count)
system.cpu.fetch.predictedBranches           21266006                       # Number of branches that fetch has predicted taken (Count)
system.cpu.fetch.cycles                      72491776                       # Number of cycles fetch has run and was not squashing or blocked (Cycle)
system.cpu.fetch.squashCycles                 3916710                       # Number of cycles fetch has spent squashing (Cycle)
system.cpu.fetch.miscStallCycles                  302                       # Number of cycles fetch has spent waiting on interrupts, or bad addresses, or out of MSHRs (Cycle)
system.cpu.fetch.pendingTrapStallCycles          2798                       # Number of stall cycles due to pending traps (Cycle)
system.cpu.fetch.cacheLines                  25449083                       # Number of cache lines fetched (Count)
[...]
system.mem_ctrl.dram.bwInstRead::cpu.inst    222212306                       # Instruction read bandwidth from this memory ((Byte/Second))
system.mem_ctrl.dram.bwInstRead::total      222212306                       # Instruction read bandwidth from this memory ((Byte/Second))
system.mem_ctrl.dram.bwWrite::writebacks     11538654                       # Write bandwidth from this memory ((Byte/Second))
system.mem_ctrl.dram.bwWrite::total          11538654                       # Write bandwidth from this memory ((Byte/Second))
system.mem_ctrl.dram.bwTotal::writebacks     11538654                       # Total bandwidth to/from this memory ((Byte/Second))
system.mem_ctrl.dram.bwTotal::cpu.inst      222212306                       # Total bandwidth to/from this memory ((Byte/Second))
system.mem_ctrl.dram.bwTotal::cpu.data       33813284                       # Total bandwidth to/from this memory ((Byte/Second))
system.mem_ctrl.dram.bwTotal::cpu.l1d.prefetcher     15749346                       # Total bandwidth to/from this memory ((Byte/Second))
system.mem_ctrl.dram.bwTotal::total         283313591                       # Total bandwidth to/from this memory ((Byte/Second))
system.mem_ctrl.dram.readBursts                869997                       # Number of DRAM read bursts (Count)
system.mem_ctrl.dram.writeBursts                21805                       # Number of DRAM write bursts (Count)
system.mem_ctrl.dram.perBankRdBursts::0         38168                       # Per bank write bursts (Count)
system.mem_ctrl.dram.perBankRdBursts::1         69237                       # Per bank write bursts (Count)
system.mem_ctrl.dram.perBankRdBursts::2        151056                       # Per bank write bursts (Count)
system.mem_ctrl.dram.perBankRdBursts::3          5617                       # Per bank write bursts (Count)
system.mem_ctrl.dram.perBankRdBursts::4         86257                       # Per bank write bursts (Count)
system.mem_ctrl.dram.perBankRdBursts::5          4237                       # Per bank write bursts (Count)
system.mem_ctrl.dram.perBankRdBursts::6          4127                       # Per bank write bursts (Count)
system.mem_ctrl.dram.perBankRdBursts::7          3953                       # Per bank write bursts (Count)
system.mem_ctrl.dram.perBankRdBursts::8          5053                       # Per bank write bursts (Count)
system.mem_ctrl.dram.perBankRdBursts::9        267080                       # Per bank write bursts (Count)
system.mem_ctrl.dram.perBankRdBursts::10        24905                       # Per bank write bursts (Count)
system.mem_ctrl.dram.perBankRdBursts::11       120021                       # Per bank write bursts (Count)
system.mem_ctrl.dram.perBankRdBursts::12        70704                       # Per bank write bursts (Count)
system.mem_ctrl.dram.perBankRdBursts::13         6994                       # Per bank write bursts (Count)
system.mem_ctrl.dram.perBankRdBursts::14         8155                       # Per bank write bursts (Count)
system.mem_ctrl.dram.perBankRdBursts::15         4433                       # Per bank write bursts (Count)
system.mem_ctrl.dram.perBankWrBursts::0          1960                       # Per bank write bursts (Count)
system.mem_ctrl.dram.perBankWrBursts::1          1371                       # Per bank write bursts (Count)
system.mem_ctrl.dram.perBankWrBursts::2          1059                       # Per bank write bursts (Count)
system.mem_ctrl.dram.perBankWrBursts::3          1036                       # Per bank write bursts (Count)
system.mem_ctrl.dram.perBankWrBursts::4          1349                       # Per bank write bursts (Count)
system.mem_ctrl.dram.perBankWrBursts::5          1484                       # Per bank write bursts (Count)
system.mem_ctrl.dram.perBankWrBursts::6          1515                       # Per bank write bursts (Count)
system.mem_ctrl.dram.perBankWrBursts::7          1483                       # Per bank write bursts (Count)
system.mem_ctrl.dram.perBankWrBursts::8          1398                       # Per bank write bursts (Count)
system.mem_ctrl.dram.perBankWrBursts::9          1415                       # Per bank write bursts (Count)
system.mem_ctrl.dram.perBankWrBursts::10         1380                       # Per bank write bursts (Count)
system.mem_ctrl.dram.perBankWrBursts::11         1390                       # Per bank write bursts (Count)
system.mem_ctrl.dram.perBankWrBursts::12         1400                       # Per bank write bursts (Count)
system.mem_ctrl.dram.perBankWrBursts::13         1394                       # Per bank write bursts (Count)
system.mem_ctrl.dram.perBankWrBursts::14         1182                       # Per bank write bursts (Count)
system.mem_ctrl.dram.perBankWrBursts::15          989                       # Per bank write bursts (Count)
system.mem_ctrl.dram.totQLat               9609040802                       # Total ticks spent queuing (Tick)
system.mem_ctrl.dram.totBusLat             4349985000                       # Total ticks spent in databus transfers (Tick)
system.mem_ctrl.dram.totMemAccLat         25921484552                       # Total ticks spent from burst creation until serviced by the DRAM (Tick)
system.mem_ctrl.dram.avgQLat                 11044.91                       # Average queueing delay per DRAM burst ((Tick/Count))
system.mem_ctrl.dram.avgBusLat                5000.00                       # Average bus latency per DRAM burst ((Tick/Count))
system.mem_ctrl.dram.avgMemAccLat            29794.91                       # Average memory access latency per DRAM burst ((Tick/Count))
system.mem_ctrl.dram.readRowHits               574511                       # Number of row buffer hits during reads (Count)
system.mem_ctrl.dram.writeRowHits               20013                       # Number of row buffer hits during writes (Count)
system.mem_ctrl.dram.readRowHitRate             66.04                       # Row buffer hit rate for reads (Ratio)
system.mem_ctrl.dram.writeRowHitRate            91.78                       # Row buffer hit rate for writes (Ratio)
system.mem_ctrl.dram.bytesPerActivate::samples       297279                       # Bytes accessed per row activation (Byte)
system.mem_ctrl.dram.bytesPerActivate::mean   191.991173                       # Bytes accessed per row activation (Byte)
system.mem_ctrl.dram.bytesPerActivate::gmean   143.232547                       # Bytes accessed per row activation (Byte)
system.mem_ctrl.dram.bytesPerActivate::stdev   172.299346                       # Bytes accessed per row activation (Byte)
system.mem_ctrl.dram.bytesPerActivate::0-127       107509     36.16%     36.16% # Bytes accessed per row activation (Byte)
system.mem_ctrl.dram.bytesPerActivate::128-255        99938     33.62%     69.78% # Bytes accessed per row activation (Byte)
system.mem_ctrl.dram.bytesPerActivate::256-383        56344     18.95%     88.74% # Bytes accessed per row activation (Byte)
system.mem_ctrl.dram.bytesPerActivate::384-511        14216      4.78%     93.52% # Bytes accessed per row activation (Byte)
system.mem_ctrl.dram.bytesPerActivate::512-639         6298      2.12%     95.64% # Bytes accessed per row activation (Byte)
system.mem_ctrl.dram.bytesPerActivate::640-767         3354      1.13%     96.76% # Bytes accessed per row activation (Byte)
system.mem_ctrl.dram.bytesPerActivate::768-895         6079      2.04%     98.81% # Bytes accessed per row activation (Byte)
system.mem_ctrl.dram.bytesPerActivate::896-1023         1673      0.56%     99.37% # Bytes accessed per row activation (Byte)
system.mem_ctrl.dram.bytesPerActivate::1024-1151         1868      0.63%    100.00% # Bytes accessed per row activation (Byte)
system.mem_ctrl.dram.bytesPerActivate::total       297279                       # Bytes accessed per row activation (Byte)
system.mem_ctrl.dram.dramBytesRead           55679808                       # Total bytes read (Byte)
system.mem_ctrl.dram.dramBytesWritten         1395520                       # Total bytes written (Byte)
system.mem_ctrl.dram.avgRdBW               266.537307                       # Average DRAM read bandwidth in MiBytes/s ((Byte/Second))
system.mem_ctrl.dram.avgWrBW                 6.680306                       # Average DRAM write bandwidth in MiBytes/s ((Byte/Second))
system.mem_ctrl.dram.peakBW                  12800.00                       # Theoretical peak bandwidth in MiByte/s ((Byte/Second))
system.mem_ctrl.dram.busUtil                     2.13                       # Data bus utilization in percentage (Ratio)
system.mem_ctrl.dram.busUtilRead                 2.08                       # Data bus utilization in percentage for reads (Ratio)
system.mem_ctrl.dram.busUtilWrite                0.05                       # Data bus utilization in percentage for writes (Ratio)
system.mem_ctrl.dram.pageHitRate                66.67                       # Row buffer hit rate, read and write combined (Ratio)
system.mem_ctrl.dram.power_state.pwrStateResidencyTicks::UNDEFINED 208900617354                       # Cumulative time (in ticks) in various power states (Tick)
system.mem_ctrl.dram.rank0.actEnergy       1215877740                       # Energy for activate commands per rank (pJ) (Joule)
system.mem_ctrl.dram.rank0.preEnergy        646250550                       # Energy for precharge commands per rank (pJ) (Joule)
system.mem_ctrl.dram.rank0.readEnergy      2589335280                       # Energy for read commands per rank (pJ) (Joule)
system.mem_ctrl.dram.rank0.writeEnergy       58761540                       # Energy for write commands per rank (pJ) (Joule)
system.mem_ctrl.dram.rank0.refreshEnergy 16490176560.000002                       # Energy for refresh commands per rank (pJ) (Joule)
system.mem_ctrl.dram.rank0.actBackEnergy  82978091430                       # Energy for active background per rank (pJ) (Joule)
system.mem_ctrl.dram.rank0.preBackEnergy  10341549600                       # Energy for precharge background per rank (pJ) (Joule)
system.mem_ctrl.dram.rank0.actPowerDownEnergy            0                       # Energy for active power-down per rank (pJ) (Joule)
system.mem_ctrl.dram.rank0.prePowerDownEnergy            0                       # Energy for precharge power-down per rank (pJ) (Joule)
system.mem_ctrl.dram.rank0.selfRefreshEnergy            0                       # Energy for self refresh per rank (pJ) (Joule)
system.mem_ctrl.dram.rank0.totalEnergy   114320042700                       # Total energy per rank (pJ) (Joule)
system.mem_ctrl.dram.rank0.averagePower    547.246074                       # Core power per rank (mW) (Watt)
system.mem_ctrl.dram.rank0.totalIdleTime            0                       # Total Idle time Per DRAM Rank (Tick)
system.mem_ctrl.dram.rank0.pwrStateTime::IDLE  26059738225                       # Time in different power states (Tick)
system.mem_ctrl.dram.rank0.pwrStateTime::REF   6975540000                       # Time in different power states (Tick)
system.mem_ctrl.dram.rank0.pwrStateTime::SREF            0                       # Time in different power states (Tick)
system.mem_ctrl.dram.rank0.pwrStateTime::PRE_PDN            0                       # Time in different power states (Tick)
system.mem_ctrl.dram.rank0.pwrStateTime::ACT 175865339129                       # Time in different power states (Tick)
system.mem_ctrl.dram.rank0.pwrStateTime::ACT_PDN            0                       # Time in different power states (Tick)
system.mem_ctrl.dram.rank1.actEnergy        906687180                       # Energy for activate commands per rank (pJ) (Joule)
system.mem_ctrl.dram.rank1.preEnergy        481923255                       # Energy for precharge commands per rank (pJ) (Joule)
system.mem_ctrl.dram.rank1.readEnergy      3622443300                       # Energy for read commands per rank (pJ) (Joule)
system.mem_ctrl.dram.rank1.writeEnergy       55060560                       # Energy for write commands per rank (pJ) (Joule)
system.mem_ctrl.dram.rank1.refreshEnergy 16490176560.000002                       # Energy for refresh commands per rank (pJ) (Joule)
system.mem_ctrl.dram.rank1.actBackEnergy  86579390760                       # Energy for active background per rank (pJ) (Joule)
system.mem_ctrl.dram.rank1.preBackEnergy   7308876480                       # Energy for precharge background per rank (pJ) (Joule)
system.mem_ctrl.dram.rank1.actPowerDownEnergy            0                       # Energy for active power-down per rank (pJ) (Joule)
system.mem_ctrl.dram.rank1.prePowerDownEnergy            0                       # Energy for precharge power-down per rank (pJ) (Joule)
system.mem_ctrl.dram.rank1.selfRefreshEnergy            0                       # Energy for self refresh per rank (pJ) (Joule)
system.mem_ctrl.dram.rank1.totalEnergy   115444558095                       # Total energy per rank (pJ) (Joule)
system.mem_ctrl.dram.rank1.averagePower    552.629090                       # Core power per rank (mW) (Watt)
system.mem_ctrl.dram.rank1.totalIdleTime            0                       # Total Idle time Per DRAM Rank (Tick)
system.mem_ctrl.dram.rank1.pwrStateTime::IDLE  18260176744                       # Time in different power states (Tick)
system.mem_ctrl.dram.rank1.pwrStateTime::REF   6975540000                       # Time in different power states (Tick)
system.mem_ctrl.dram.rank1.pwrStateTime::SREF            0                       # Time in different power states (Tick)
system.mem_ctrl.dram.rank1.pwrStateTime::PRE_PDN            0                       # Time in different power states (Tick)
system.mem_ctrl.dram.rank1.pwrStateTime::ACT 183664900610                       # Time in different power states (Tick)
system.mem_ctrl.dram.rank1.pwrStateTime::ACT_PDN            0                       # Time in different power states (Tick)
system.mem_ctrl.power_state.pwrStateResidencyTicks::UNDEFINED 208900617354                       # Cumulative time (in ticks) in various power states (Tick)
system.membus.transDist::ReadResp              869093                       # Transaction distribution (Count)
system.membus.transDist::WritebackDirty         37663                       # Transaction distribution (Count)
system.membus.transDist::CleanEvict            849431                       # Transaction distribution (Count)
system.membus.transDist::UpgradeReq                 1                       # Transaction distribution (Count)
system.membus.transDist::ReadExReq              18002                       # Transaction distribution (Count)
system.membus.transDist::ReadExResp             18002                       # Transaction distribution (Count)
system.membus.transDist::ReadSharedReq         869091                       # Transaction distribution (Count)
system.membus.pktCount_system.cpu.l1d.mem_side_port::system.mem_ctrl.port       485328                       # Packet count per connected requestor and responder (Count)
system.membus.pktCount_system.cpu.l1d.mem_side_port::total       485328                       # Packet count per connected requestor and responder (Count)
system.membus.pktCount_system.cpu.l1i.mem_side_port::system.mem_ctrl.port      2175954                       # Packet count per connected requestor and responder (Count)
system.membus.pktCount_system.cpu.l1i.mem_side_port::total      2175954                       # Packet count per connected requestor and responder (Count)
system.membus.pktCount::total                 2661282                       # Packet count per connected requestor and responder (Count)
system.membus.pktSize_system.cpu.l1d.mem_side_port::system.mem_ctrl.port     12764096                       # Cumulative packet size per connected requestor and responder (Byte)
system.membus.pktSize_system.cpu.l1d.mem_side_port::total     12764096                       # Cumulative packet size per connected requestor and responder (Byte)
system.membus.pktSize_system.cpu.l1i.mem_side_port::system.mem_ctrl.port     46420352                       # Cumulative packet size per connected requestor and responder (Byte)
system.membus.pktSize_system.cpu.l1i.mem_side_port::total     46420352                       # Cumulative packet size per connected requestor and responder (Byte)
system.membus.pktSize::total                 59184448                       # Cumulative packet size per connected requestor and responder (Byte)
system.membus.snoops                                1                       # Total snoops (Count)
system.membus.snoopTraffic                         64                       # Total snoop traffic (Byte)
system.membus.snoopFanout::samples             887094                       # Request fanout histogram (Count)
system.membus.snoopFanout::mean              0.000038                       # Request fanout histogram (Count)
system.membus.snoopFanout::stdev             0.006191                       # Request fanout histogram (Count)
system.membus.snoopFanout::underflows               0      0.00%      0.00% # Request fanout histogram (Count)
system.membus.snoopFanout::0                   887060    100.00%    100.00% # Request fanout histogram (Count)
system.membus.snoopFanout::1                       34      0.00%    100.00% # Request fanout histogram (Count)
system.membus.snoopFanout::2                        0      0.00%    100.00% # Request fanout histogram (Count)
system.membus.snoopFanout::overflows                0      0.00%    100.00% # Request fanout histogram (Count)
system.membus.snoopFanout::min_value                0                       # Request fanout histogram (Count)
system.membus.snoopFanout::max_value                1                       # Request fanout histogram (Count)
system.membus.snoopFanout::total               887094                       # Request fanout histogram (Count)
system.membus.power_state.pwrStateResidencyTicks::UNDEFINED 208900617354                       # Cumulative time (in ticks) in various power states (Tick)
system.membus.reqLayer2.occupancy         25938599236                       # Layer occupancy (ticks) (Tick)
system.membus.reqLayer2.utilization               0.1                       # Layer utilization (Ratio)
system.membus.respLayer2.occupancy        10950839853                       # Layer occupancy (ticks) (Tick)
system.membus.respLayer2.utilization              0.1                       # Layer utilization (Ratio)
system.membus.respLayer3.occupancy        49363748036                       # Layer occupancy (ticks) (Tick)
system.membus.respLayer3.utilization              0.2                       # Layer utilization (Ratio)
system.membus.snoop_filter.totRequests        1774188                       # Total number of requests made to the snoop filter. (Count)
system.membus.snoop_filter.hitSingleRequests       887096                       # Number of requests hitting in the snoop filter with a single holder of the requested data. (Count)
system.membus.snoop_filter.hitMultiRequests           32                       # Number of requests hitting in the snoop filter with multiple (>1) holders of the requested data. (Count)
system.membus.snoop_filter.totSnoops                0                       # Total number of snoops made to the snoop filter. (Count)
system.membus.snoop_filter.hitSingleSnoops            0                       # Number of snoops hitting in the snoop filter with a single holder of the requested data. (Count)
system.membus.snoop_filter.hitMultiSnoops            0                       # Number of snoops hitting in the snoop filter with multiple (>1) holders of the requested data. (Count)
system.workload.inst.arm                            0                       # number of arm instructions executed (Count)
system.workload.inst.quiesce                        0                       # number of quiesce instructions executed (Count)

---------- End Simulation Statistics   ----------
