
---------- Begin Simulation Statistics ----------
simSeconds                                   6.908552                       # Number of seconds simulated (Second)
simTicks                                 6908551681890                       # Number of ticks simulated (Tick)
finalTick                                6908551681890                       # Number of ticks from beginning of simulation (restored from checkpoints and never reset) (Tick)
simFreq                                  1000000000000                       # The number of ticks per simulated second ((Tick/Second))
hostSeconds                                     82.24                       # Real time elapsed on the host (Second)
hostTickRate                              84008169372                       # The number of ticks simulated per host second (ticks/s) ((Tick/Second))
hostMemory                                    8615224                       # Number of bytes of host memory used (Byte)
simInsts                                     22786713                       # Number of instructions simulated (Count)
simOps                                       42749189                       # Number of ops (including micro ops) simulated (Count)
hostInstRate                                   277087                       # Simulator instruction rate (inst/s) ((Count/Second))
hostOpRate                                     519830                       # Simulator op (including micro ops) rate (op/s) ((Count/Second))
system.clk_domain.clock                         13333                       # Clock period in ticks (Tick)
system.clk_domain.voltage_domain.voltage            1                       # Voltage in Volts (Volt)
system.cpu.numCycles                        518154330                       # Number of cpu cycles simulated (Cycle)
system.cpu.cpi                              22.738816                       # CPI: cycles per instruction (core level) ((Cycle/Count))
system.cpu.ipc                               0.043978                       # IPC: instructions per cycle (core level) ((Count/Cycle))
system.cpu.numWorkItemsStarted                      0                       # Number of work items this cpu started (Count)
system.cpu.numWorkItemsCompleted                    0                       # Number of work items this cpu completed (Count)
system.cpu.branchPred.lookups_0::NoBranch          244      0.00%      0.00% # Number of BP lookups (Count)
system.cpu.branchPred.lookups_0::Return        150836      3.05%      3.06% # Number of BP lookups (Count)
system.cpu.branchPred.lookups_0::CallDirect       150237      3.04%      6.10% # Number of BP lookups (Count)
system.cpu.branchPred.lookups_0::CallIndirect          604      0.01%      6.11% # Number of BP lookups (Count)
system.cpu.branchPred.lookups_0::DirectCond      4318908     87.38%     93.49% # Number of BP lookups (Count)
system.cpu.branchPred.lookups_0::DirectUncond       306496      6.20%     99.69% # Number of BP lookups (Count)
system.cpu.branchPred.lookups_0::IndirectCond            0      0.00%     99.69% # Number of BP lookups (Count)
system.cpu.branchPred.lookups_0::IndirectUncond        15213      0.31%    100.00% # Number of BP lookups (Count)
system.cpu.branchPred.lookups_0::total        4942538                       # Number of BP lookups (Count)
system.cpu.branchPred.squashes_0::NoBranch            0                       # Number of branches that got squashed (completely removed) as an earlier branch was mispredicted. (Count)
system.cpu.branchPred.squashes_0::Return            0                       # Number of branches that got squashed (completely removed) as an earlier branch was mispredicted. (Count)
system.cpu.branchPred.squashes_0::CallDirect            0                       # Number of branches that got squashed (completely removed) as an earlier branch was mispredicted. (Count)
system.cpu.branchPred.squashes_0::CallIndirect            0                       # Number of branches that got squashed (completely removed) as an earlier branch was mispredicted. (Count)
system.cpu.branchPred.squashes_0::DirectCond            0                       # Number of branches that got squashed (completely removed) as an earlier branch was mispredicted. (Count)
system.cpu.branchPred.squashes_0::DirectUncond            0                       # Number of branches that got squashed (completely removed) as an earlier branch was mispredicted. (Count)
system.cpu.branchPred.squashes_0::IndirectCond            0                       # Number of branches that got squashed (completely removed) as an earlier branch was mispredicted. (Count)
system.cpu.branchPred.squashes_0::IndirectUncond            0                       # Number of branches that got squashed (completely removed) as an earlier branch was mispredicted. (Count)
system.cpu.branchPred.squashes_0::total             0                       # Number of branches that got squashed (completely removed) as an earlier branch was mispredicted. (Count)
system.cpu.branchPred.corrected_0::NoBranch          244      0.05%      0.05% # Number of branches that got corrected but not yet commited. Branches get corrected by decode or after execute. Also a branch misprediction can be detected out-of-order. Therefore, a corrected branch might not end up beeing committed in case an even earlier branch was mispredicted (Count)
system.cpu.branchPred.corrected_0::Return            0      0.00%      0.05% # Number of branches that got corrected but not yet commited. Branches get corrected by decode or after execute. Also a branch misprediction can be detected out-of-order. Therefore, a corrected branch might not end up beeing committed in case an even earlier branch was mispredicted (Count)
system.cpu.branchPred.corrected_0::CallDirect          644      0.12%      0.17% # Number of branches that got corrected but not yet commited. Branches get corrected by decode or after execute. Also a branch misprediction can be detected out-of-order. Therefore, a corrected branch might not end up beeing committed in case an even earlier branch was mispredicted (Count)
system.cpu.branchPred.corrected_0::CallIndirect          241      0.05%      0.22% # Number of branches that got corrected but not yet commited. Branches get corrected by decode or after execute. Also a branch misprediction can be detected out-of-order. Therefore, a corrected branch might not end up beeing committed in case an even earlier branch was mispredicted (Count)
system.cpu.branchPred.corrected_0::DirectCond       516981     99.48%     99.70% # Number of branches that got corrected but not yet commited. Branches get corrected by decode or after execute. Also a branch misprediction can be detected out-of-order. Therefore, a corrected branch might not end up beeing committed in case an even earlier branch was mispredicted (Count)
system.cpu.branchPred.corrected_0::DirectUncond          439      0.08%     99.79% # Number of branches that got corrected but not yet commited. Branches get corrected by decode or after execute. Also a branch misprediction can be detected out-of-order. Therefore, a corrected branch might not end up beeing committed in case an even earlier branch was mispredicted (Count)
system.cpu.branchPred.corrected_0::IndirectCond            0      0.00%     99.79% # Number of branches that got corrected but not yet commited. Branches get corrected by decode or after execute. Also a branch misprediction can be detected out-of-order. Therefore, a corrected branch might not end up beeing committed in case an even earlier branch was mispredicted (Count)
system.cpu.branchPred.corrected_0::IndirectUncond         1112      0.21%    100.00% # Number of branches that got corrected but not yet commited. Branches get corrected by decode or after execute. Also a branch misprediction can be detected out-of-order. Therefore, a corrected branch might not end up beeing committed in case an even earlier branch was mispredicted (Count)
system.cpu.branchPred.corrected_0::total       519661                       # Number of branches that got corrected but not yet commited. Branches get corrected by decode or after execute. Also a branch misprediction can be detected out-of-order. Therefore, a corrected branch might not end up beeing committed in case an even earlier branch was mispredicted (Count)
system.cpu.branchPred.earlyResteers_0::NoBranch            0                       # Number of branches that got redirected after decode. (Count)
system.cpu.branchPred.earlyResteers_0::Return            0                       # Number of branches that got redirected after decode. (Count)
system.cpu.branchPred.earlyResteers_0::CallDirect            0                       # Number of branches that got redirected after decode. (Count)
system.cpu.branchPred.earlyResteers_0::CallIndirect            0                       # Number of branches that got redirected after decode. (Count)
system.cpu.branchPred.earlyResteers_0::DirectCond            0                       # Number of branches that got redirected after decode. (Count)
system.cpu.branchPred.earlyResteers_0::DirectUncond            0                       # Number of branches that got redirected after decode. (Count)
system.cpu.branchPred.earlyResteers_0::IndirectCond            0                       # Number of branches that got redirected after decode. (Count)
system.cpu.branchPred.earlyResteers_0::IndirectUncond            0                       # Number of branches that got redirected after decode. (Count)
system.cpu.branchPred.earlyResteers_0::total            0                       # Number of branches that got redirected after decode. (Count)
system.cpu.branchPred.committed_0::NoBranch          244      0.00%      0.00% # Number of branches finally committed  (Count)
system.cpu.branchPred.committed_0::Return       150836      3.05%      3.06% # Number of branches finally committed  (Count)
system.cpu.branchPred.committed_0::CallDirect       150236      3.04%      6.10% # Number of branches finally committed  (Count)
system.cpu.branchPred.committed_0::CallIndirect          604      0.01%      6.11% # Number of branches finally committed  (Count)
system.cpu.branchPred.committed_0::DirectCond      4318908     87.38%     93.49% # Number of branches finally committed  (Count)
system.cpu.branchPred.committed_0::DirectUncond       306496      6.20%     99.69% # Number of branches finally committed  (Count)
system.cpu.branchPred.committed_0::IndirectCond            0      0.00%     99.69% # Number of branches finally committed  (Count)
system.cpu.branchPred.committed_0::IndirectUncond        15213      0.31%    100.00% # Number of branches finally committed  (Count)
system.cpu.branchPred.committed_0::total      4942537                       # Number of branches finally committed  (Count)
system.cpu.branchPred.mispredicted_0::NoBranch          244      0.05%      0.05% # Number of committed branches that were mispredicted. (Count)
system.cpu.branchPred.mispredicted_0::Return            0      0.00%      0.05% # Number of committed branches that were mispredicted. (Count)
system.cpu.branchPred.mispredicted_0::CallDirect          623      0.12%      0.17% # Number of committed branches that were mispredicted. (Count)
system.cpu.branchPred.mispredicted_0::CallIndirect          216      0.04%      0.21% # Number of committed branches that were mispredicted. (Count)
system.cpu.branchPred.mispredicted_0::DirectCond       516977     99.50%     99.71% # Number of committed branches that were mispredicted. (Count)
system.cpu.branchPred.mispredicted_0::DirectUncond          436      0.08%     99.80% # Number of committed branches that were mispredicted. (Count)
system.cpu.branchPred.mispredicted_0::IndirectCond            0      0.00%     99.80% # Number of committed branches that were mispredicted. (Count)
system.cpu.branchPred.mispredicted_0::IndirectUncond         1054      0.20%    100.00% # Number of committed branches that were mispredicted. (Count)
system.cpu.branchPred.mispredicted_0::total       519550                       # Number of committed branches that were mispredicted. (Count)
system.cpu.branchPred.targetProvider_0::NoTarget      1869004     37.81%     37.81% # The component providing the target for taken branches (Count)
system.cpu.branchPred.targetProvider_0::BTB      2908030     58.84%     96.65% # The component providing the target for taken branches (Count)
system.cpu.branchPred.targetProvider_0::RAS       150836      3.05%     99.70% # The component providing the target for taken branches (Count)
system.cpu.branchPred.targetProvider_0::Indirect        14668      0.30%    100.00% # The component providing the target for taken branches (Count)
system.cpu.branchPred.targetProvider_0::total      4942538                       # The component providing the target for taken branches (Count)
system.cpu.branchPred.targetWrong_0::NoBranch       227620     43.98%     43.98% # Number of branches where the target was incorrect or not available at prediction time. (Count)
system.cpu.branchPred.targetWrong_0::Return       289857     56.00%     99.98% # Number of branches where the target was incorrect or not available at prediction time. (Count)
system.cpu.branchPred.targetWrong_0::CallDirect            0      0.00%     99.98% # Number of branches where the target was incorrect or not available at prediction time. (Count)
system.cpu.branchPred.targetWrong_0::CallIndirect          121      0.02%    100.00% # Number of branches where the target was incorrect or not available at prediction time. (Count)
system.cpu.branchPred.targetWrong_0::DirectCond            0      0.00%    100.00% # Number of branches where the target was incorrect or not available at prediction time. (Count)
system.cpu.branchPred.targetWrong_0::DirectUncond            0      0.00%    100.00% # Number of branches where the target was incorrect or not available at prediction time. (Count)
system.cpu.branchPred.targetWrong_0::IndirectCond            0      0.00%    100.00% # Number of branches where the target was incorrect or not available at prediction time. (Count)
system.cpu.branchPred.targetWrong_0::IndirectUncond            0      0.00%    100.00% # Number of branches where the target was incorrect or not available at prediction time. (Count)
system.cpu.branchPred.targetWrong_0::total       517598                       # Number of branches where the target was incorrect or not available at prediction time. (Count)
system.cpu.branchPred.condPredicted           4319152                       # Number of conditional branches predicted (Count)
system.cpu.branchPred.condPredictedTaken      2453423                       # Number of conditional branches predicted as taken (Count)
system.cpu.branchPred.condIncorrect            519661                       # Number of conditional branches incorrect (Count)
system.cpu.branchPred.predTakenBTBMiss           1312                       # Number of branches predicted taken but missed in BTB (Count)
system.cpu.branchPred.NotTakenMispredicted       229026                       # Number branches predicted 'not taken' but turned out to be taken (Count)
system.cpu.branchPred.TakenMispredicted        290635                       # Number branches predicted taken but are actually not taken (Count)
system.cpu.branchPred.BTBLookups              4942538                       # Number of BTB lookups (Count)
system.cpu.branchPred.BTBUpdates               227429                       # Number of BTB updates (Count)
system.cpu.branchPred.BTBHits                 4182054                       # Number of BTB hits (Count)
system.cpu.branchPred.BTBHitRatio            0.846135                       # BTB Hit Ratio (Ratio)
system.cpu.branchPred.BTBMispredicted            2245                       # Number BTB mispredictions. No target found or target wrong (Count)
system.cpu.branchPred.indirectLookups           15817                       # Number of indirect predictor lookups. (Count)
system.cpu.branchPred.indirectHits              14668                       # Number of indirect target hits. (Count)
system.cpu.branchPred.indirectMisses             1149                       # Number of indirect misses. (Count)
system.cpu.branchPred.indirectMispredicted            0                       # Number of mispredicted indirect branches. (Count)
system.cpu.branchPred.btb.lookups::NoBranch          244      0.00%      0.00% # Number of BTB lookups (Count)
system.cpu.branchPred.btb.lookups::Return       150836      3.05%      3.06% # Number of BTB lookups (Count)
system.cpu.branchPred.btb.lookups::CallDirect       150237      3.04%      6.10% # Number of BTB lookups (Count)
system.cpu.branchPred.btb.lookups::CallIndirect          604      0.01%      6.11% # Number of BTB lookups (Count)
system.cpu.branchPred.btb.lookups::DirectCond      4318908     87.38%     93.49% # Number of BTB lookups (Count)
system.cpu.branchPred.btb.lookups::DirectUncond       306496      6.20%     99.69% # Number of BTB lookups (Count)
system.cpu.branchPred.btb.lookups::IndirectCond            0      0.00%     99.69% # Number of BTB lookups (Count)
system.cpu.branchPred.btb.lookups::IndirectUncond        15213      0.31%    100.00% # Number of BTB lookups (Count)
system.cpu.branchPred.btb.lookups::total      4942538                       # Number of BTB lookups (Count)
system.cpu.branchPred.btb.misses::NoBranch            0      0.00%      0.00% # Number of BTB misses (Count)
system.cpu.branchPred.btb.misses::Return       150836     19.83%     19.83% # Number of BTB misses (Count)
system.cpu.branchPred.btb.misses::CallDirect          624      0.08%     19.92% # Number of BTB misses (Count)
system.cpu.branchPred.btb.misses::CallIndirect          604      0.08%     20.00% # Number of BTB misses (Count)
system.cpu.branchPred.btb.misses::DirectCond       592778     77.95%     97.94% # Number of BTB misses (Count)
system.cpu.branchPred.btb.misses::DirectUncond          429      0.06%     98.00% # Number of BTB misses (Count)
system.cpu.branchPred.btb.misses::IndirectCond            0      0.00%     98.00% # Number of BTB misses (Count)
system.cpu.branchPred.btb.misses::IndirectUncond        15213      2.00%    100.00% # Number of BTB misses (Count)
system.cpu.branchPred.btb.misses::total        760484                       # Number of BTB misses (Count)
system.cpu.branchPred.btb.updates::NoBranch            0      0.00%      0.00% # Number of BTB updates (Count)
system.cpu.branchPred.btb.updates::Return            0      0.00%      0.00% # Number of BTB updates (Count)
system.cpu.branchPred.btb.updates::CallDirect          644      0.28%      0.28% # Number of BTB updates (Count)
system.cpu.branchPred.btb.updates::CallIndirect            0      0.00%      0.28% # Number of BTB updates (Count)
system.cpu.branchPred.btb.updates::DirectCond       226346     99.52%     99.81% # Number of BTB updates (Count)
system.cpu.branchPred.btb.updates::DirectUncond          439      0.19%    100.00% # Number of BTB updates (Count)
system.cpu.branchPred.btb.updates::IndirectCond            0      0.00%    100.00% # Number of BTB updates (Count)
system.cpu.branchPred.btb.updates::IndirectUncond            0      0.00%    100.00% # Number of BTB updates (Count)
system.cpu.branchPred.btb.updates::total       227429                       # Number of BTB updates (Count)
system.cpu.branchPred.btb.mispredict::NoBranch            0      0.00%      0.00% # Number of BTB mispredictions. No target found or target wrong. (Count)
system.cpu.branchPred.btb.mispredict::Return            0      0.00%      0.00% # Number of BTB mispredictions. No target found or target wrong. (Count)
system.cpu.branchPred.btb.mispredict::CallDirect          644      0.28%      0.28% # Number of BTB mispredictions. No target found or target wrong. (Count)
system.cpu.branchPred.btb.mispredict::CallIndirect            0      0.00%      0.28% # Number of BTB mispredictions. No target found or target wrong. (Count)
system.cpu.branchPred.btb.mispredict::DirectCond       226346     99.52%     99.81% # Number of BTB mispredictions. No target found or target wrong. (Count)
system.cpu.branchPred.btb.mispredict::DirectUncond          439      0.19%    100.00% # Number of BTB mispredictions. No target found or target wrong. (Count)
system.cpu.branchPred.btb.mispredict::IndirectCond            0      0.00%    100.00% # Number of BTB mispredictions. No target found or target wrong. (Count)
system.cpu.branchPred.btb.mispredict::IndirectUncond            0      0.00%    100.00% # Number of BTB mispredictions. No target found or target wrong. (Count)
system.cpu.branchPred.btb.mispredict::total       227429                       # Number of BTB mispredictions. No target found or target wrong. (Count)
system.cpu.branchPred.btb.power_state.pwrStateResidencyTicks::UNDEFINED 6908551681890                       # Cumulative time (in ticks) in various power states (Tick)
system.cpu.branchPred.indirectBranchPred.lookups        15817                       # Number of lookups (Count)
system.cpu.branchPred.indirectBranchPred.hits        14668                       # Number of hits of a tag (Count)
system.cpu.branchPred.indirectBranchPred.misses         1149                       # Number of misses (Count)
system.cpu.branchPred.indirectBranchPred.targetRecords         1353                       # Number of targets that where recorded/installed in the cache (Count)
system.cpu.branchPred.indirectBranchPred.indirectRecords        17170                       # Number of indirect branches/calls recorded in the indirect hist (Count)
system.cpu.branchPred.indirectBranchPred.speculativeOverflows            0                       # Number of times more than the allowed capacity for speculative branches/calls where in flight and destroy the path history (Count)
system.cpu.branchPred.ras.pushes               150841                       # Number of times a PC was pushed onto the RAS (Count)
system.cpu.branchPred.ras.pops                 150836                       # Number of times a PC was poped from the RAS (Count)
system.cpu.branchPred.ras.squashes                  0                       # Number of times the stack operation was squashed due to wrong speculation. (Count)
system.cpu.branchPred.ras.used                 150836                       # Number of times the RAS is the provider (Count)
system.cpu.branchPred.ras.correct              150836                       # Number of times the RAS is the provider and the prediction is correct (Count)
system.cpu.branchPred.ras.incorrect                 0                       # Number of times the RAS is the provider and the prediction is wrong (Count)
system.cpu.commitStats0.numInsts             22787217                       # Number of instructions committed (thread level) (Count)
system.cpu.commitStats0.numOps               42749916                       # Number of ops (including micro ops) committed (thread level) (Count)
system.cpu.commitStats0.numInstsNotNOP              0                       # Number of instructions committed excluding NOPs or prefetches (Count)
system.cpu.commitStats0.numOpsNotNOP                0                       # Number of Ops (including micro ops) Simulated (Count)
system.cpu.commitStats0.cpi                 22.738816                       # CPI: cycles per instruction (thread level) ((Cycle/Count))
system.cpu.commitStats0.ipc                  0.043978                       # IPC: instructions per cycle (thread level) ((Count/Cycle))
system.cpu.commitStats0.numMemRefs                  0                       # Number of memory references committed (Count)
system.cpu.commitStats0.numFpInsts            5710672                       # Number of float instructions (Count)
system.cpu.commitStats0.numIntInsts          39343705                       # Number of integer instructions (Count)
system.cpu.commitStats0.numLoadInsts          6371849                       # Number of load instructions (Count)
system.cpu.commitStats0.numStoreInsts         1938981                       # Number of store instructions (Count)
system.cpu.commitStats0.numVecInsts                 0                       # Number of vector instructions (Count)
system.cpu.commitStats0.committedInstType::No_OpClass       322632      0.75%      0.75% # Class of committed instruction. (Count)
system.cpu.commitStats0.committedInstType::IntAlu     31047808     72.63%     73.38% # Class of committed instruction. (Count)
system.cpu.commitStats0.committedInstType::IntMult          120      0.00%     73.38% # Class of committed instruction. (Count)
system.cpu.commitStats0.committedInstType::IntDiv        41058      0.10%     73.48% # Class of committed instruction. (Count)
system.cpu.commitStats0.committedInstType::FloatAdd      1563980      3.66%     77.14% # Class of committed instruction. (Count)
system.cpu.commitStats0.committedInstType::FloatCmp            0      0.00%     77.14% # Class of committed instruction. (Count)
system.cpu.commitStats0.committedInstType::FloatCvt         1264      0.00%     77.14% # Class of committed instruction. (Count)
system.cpu.commitStats0.committedInstType::FloatMult            0      0.00%     77.14% # Class of committed instruction. (Count)
system.cpu.commitStats0.committedInstType::FloatMultAcc            0      0.00%     77.14% # Class of committed instruction. (Count)
system.cpu.commitStats0.committedInstType::FloatDiv            0      0.00%     77.14% # Class of committed instruction. (Count)
system.cpu.commitStats0.committedInstType::FloatMisc            0      0.00%     77.14% # Class of committed instruction. (Count)
system.cpu.commitStats0.committedInstType::FloatSqrt            0      0.00%     77.14% # Class of committed instruction. (Count)
system.cpu.commitStats0.committedInstType::SimdAdd         6400      0.01%     77.15% # Class of committed instruction. (Count)
system.cpu.commitStats0.committedInstType::SimdAddAcc            0      0.00%     77.15% # Class of committed instruction. (Count)
system.cpu.commitStats0.committedInstType::SimdAlu        92812      0.22%     77.37% # Class of committed instruction. (Count)
system.cpu.commitStats0.committedInstType::SimdCmp            6      0.00%     77.37% # Class of committed instruction. (Count)
system.cpu.commitStats0.committedInstType::SimdCvt        13242      0.03%     77.40% # Class of committed instruction. (Count)
system.cpu.commitStats0.committedInstType::SimdMisc        40276      0.09%     77.50% # Class of committed instruction. (Count)
system.cpu.commitStats0.committedInstType::SimdMult            0      0.00%     77.50% # Class of committed instruction. (Count)
system.cpu.commitStats0.committedInstType::SimdMultAcc            0      0.00%     77.50% # Class of committed instruction. (Count)
system.cpu.commitStats0.committedInstType::SimdMatMultAcc            0      0.00%     77.50% # Class of committed instruction. (Count)
system.cpu.commitStats0.committedInstType::SimdShift         1636      0.00%     77.50% # Class of committed instruction. (Count)
system.cpu.commitStats0.committedInstType::SimdShiftAcc            0      0.00%     77.50% # Class of committed instruction. (Count)
system.cpu.commitStats0.committedInstType::SimdDiv            0      0.00%     77.50% # Class of committed instruction. (Count)
system.cpu.commitStats0.committedInstType::SimdSqrt            0      0.00%     77.50% # Class of committed instruction. (Count)
system.cpu.commitStats0.committedInstType::SimdFloatAdd            9      0.00%     77.50% # Class of committed instruction. (Count)
system.cpu.commitStats0.committedInstType::SimdFloatAlu            0      0.00%     77.50% # Class of committed instruction. (Count)
system.cpu.commitStats0.committedInstType::SimdFloatCmp            0      0.00%     77.50% # Class of committed instruction. (Count)
system.cpu.commitStats0.committedInstType::SimdFloatCvt      1297834      3.04%     80.54% # Class of committed instruction. (Count)
system.cpu.commitStats0.committedInstType::SimdFloatDiv        10009      0.02%     80.56% # Class of committed instruction. (Count)
system.cpu.commitStats0.committedInstType::SimdFloatMisc            0      0.00%     80.56% # Class of committed instruction. (Count)
system.cpu.commitStats0.committedInstType::SimdFloatMult            0      0.00%     80.56% # Class of committed instruction. (Count)
system.cpu.commitStats0.committedInstType::SimdFloatMultAcc            0      0.00%     80.56% # Class of committed instruction. (Count)
system.cpu.commitStats0.committedInstType::SimdFloatMatMultAcc            0      0.00%     80.56% # Class of committed instruction. (Count)
system.cpu.commitStats0.committedInstType::SimdFloatSqrt            0      0.00%     80.56% # Class of committed instruction. (Count)
system.cpu.commitStats0.committedInstType::SimdReduceAdd            0      0.00%     80.56% # Class of committed instruction. (Count)
system.cpu.commitStats0.committedInstType::SimdReduceAlu            0      0.00%     80.56% # Class of committed instruction. (Count)
system.cpu.commitStats0.committedInstType::SimdReduceCmp            0      0.00%     80.56% # Class of committed instruction. (Count)
system.cpu.commitStats0.committedInstType::SimdFloatReduceAdd            0      0.00%     80.56% # Class of committed instruction. (Count)
system.cpu.commitStats0.committedInstType::SimdFloatReduceCmp            0      0.00%     80.56% # Class of committed instruction. (Count)
system.cpu.commitStats0.committedInstType::SimdAes            0      0.00%     80.56% # Class of committed instruction. (Count)
system.cpu.commitStats0.committedInstType::SimdAesMix            0      0.00%     80.56% # Class of committed instruction. (Count)
system.cpu.commitStats0.committedInstType::SimdSha1Hash            0      0.00%     80.56% # Class of committed instruction. (Count)
system.cpu.commitStats0.committedInstType::SimdSha1Hash2            0      0.00%     80.56% # Class of committed instruction. (Count)
system.cpu.commitStats0.committedInstType::SimdSha256Hash            0      0.00%     80.56% # Class of committed instruction. (Count)
system.cpu.commitStats0.committedInstType::SimdSha256Hash2            0      0.00%     80.56% # Class of committed instruction. (Count)
system.cpu.commitStats0.committedInstType::SimdShaSigma2            0      0.00%     80.56% # Class of committed instruction. (Count)
system.cpu.commitStats0.committedInstType::SimdShaSigma3            0      0.00%     80.56% # Class of committed instruction. (Count)
system.cpu.commitStats0.committedInstType::SimdPredAlu            0      0.00%     80.56% # Class of committed instruction. (Count)
system.cpu.commitStats0.committedInstType::Matrix            0      0.00%     80.56% # Class of committed instruction. (Count)
system.cpu.commitStats0.committedInstType::MatrixMov            0      0.00%     80.56% # Class of committed instruction. (Count)
system.cpu.commitStats0.committedInstType::MatrixOP            0      0.00%     80.56% # Class of committed instruction. (Count)
system.cpu.commitStats0.committedInstType::MemRead      4651438     10.88%     91.44% # Class of committed instruction. (Count)
system.cpu.commitStats0.committedInstType::MemWrite      1043409      2.44%     93.88% # Class of committed instruction. (Count)
system.cpu.commitStats0.committedInstType::FloatMemRead      1720411      4.02%     97.91% # Class of committed instruction. (Count)
system.cpu.commitStats0.committedInstType::FloatMemWrite       895572      2.09%    100.00% # Class of committed instruction. (Count)
system.cpu.commitStats0.committedInstType::IprAccess            0      0.00%    100.00% # Class of committed instruction. (Count)
system.cpu.commitStats0.committedInstType::InstPrefetch            0      0.00%    100.00% # Class of committed instruction. (Count)
system.cpu.commitStats0.committedInstType::SimdUnitStrideLoad            0      0.00%    100.00% # Class of committed instruction. (Count)
system.cpu.commitStats0.committedInstType::SimdUnitStrideStore            0      0.00%    100.00% # Class of committed instruction. (Count)
system.cpu.commitStats0.committedInstType::SimdUnitStrideMaskLoad            0      0.00%    100.00% # Class of committed instruction. (Count)
system.cpu.commitStats0.committedInstType::SimdUnitStrideMaskStore            0      0.00%    100.00% # Class of committed instruction. (Count)
system.cpu.commitStats0.committedInstType::SimdStridedLoad            0      0.00%    100.00% # Class of committed instruction. (Count)
system.cpu.commitStats0.committedInstType::SimdStridedStore            0      0.00%    100.00% # Class of committed instruction. (Count)
system.cpu.commitStats0.committedInstType::SimdIndexedLoad            0      0.00%    100.00% # Class of committed instruction. (Count)
system.cpu.commitStats0.committedInstType::SimdIndexedStore            0      0.00%    100.00% # Class of committed instruction. (Count)
system.cpu.commitStats0.committedInstType::SimdWholeRegisterLoad            0      0.00%    100.00% # Class of committed instruction. (Count)
system.cpu.commitStats0.committedInstType::SimdWholeRegisterStore            0      0.00%    100.00% # Class of committed instruction. (Count)
system.cpu.commitStats0.committedInstType::SimdUnitStrideFaultOnlyFirstLoad            0      0.00%    100.00% # Class of committed instruction. (Count)
system.cpu.commitStats0.committedInstType::SimdUnitStrideSegmentedLoad            0      0.00%    100.00% # Class of committed instruction. (Count)
system.cpu.commitStats0.committedInstType::SimdUnitStrideSegmentedStore            0      0.00%    100.00% # Class of committed instruction. (Count)
system.cpu.commitStats0.committedInstType::SimdExt            0      0.00%    100.00% # Class of committed instruction. (Count)
system.cpu.commitStats0.committedInstType::SimdFloatExt            0      0.00%    100.00% # Class of committed instruction. (Count)
system.cpu.commitStats0.committedInstType::SimdConfig            0      0.00%    100.00% # Class of committed instruction. (Count)
system.cpu.commitStats0.committedInstType::total     42749916                       # Class of committed instruction. (Count)
system.cpu.commitStats0.committedControl::IsControl      4942538                       # Class of control type instructions committed (Count)
system.cpu.commitStats0.committedControl::IsDirectControl      4775641                       # Class of control type instructions committed (Count)
system.cpu.commitStats0.committedControl::IsIndirectControl       166653                       # Class of control type instructions committed (Count)
system.cpu.commitStats0.committedControl::IsCondControl      4318908                       # Class of control type instructions committed (Count)
system.cpu.commitStats0.committedControl::IsUncondControl       623386                       # Class of control type instructions committed (Count)
system.cpu.commitStats0.committedControl::IsCall       150841                       # Class of control type instructions committed (Count)
system.cpu.commitStats0.committedControl::IsReturn       150836                       # Class of control type instructions committed (Count)
system.cpu.exec_context.thread_0.numMatAluAccesses            0                       # Number of matrix alu accesses (Count)
system.cpu.exec_context.thread_0.numCallsReturns       301677                       # Number of times a function call or return occured (Count)
system.cpu.exec_context.thread_0.numMatInsts            0                       # Number of matrix instructions (Count)
system.cpu.exec_context.thread_0.numIdleCycles            0                       # Number of idle cycles (Cycle)
system.cpu.exec_context.thread_0.numBusyCycles    518154330                       # Number of busy cycles (Cycle)
system.cpu.exec_context.thread_0.notIdleFraction            1                       # Percentage of non-idle cycles (Ratio)
system.cpu.exec_context.thread_0.idleFraction            0                       # Percentage of idle cycles (Ratio)
system.cpu.exec_context.thread_0.numPredictedBranches      3073534                       # Number of branches predicted as taken (Count)
system.cpu.exec_context.thread_0.numBranchMispred       519661                       # Number of branch mispredictions (Count)
system.cpu.executeStats0.numInsts                   0                       # Number of executed instructions (Count)
system.cpu.executeStats0.numNop                     0                       # Number of nop insts executed (Count)
system.cpu.executeStats0.numBranches                0                       # Number of branches executed (Count)
system.cpu.executeStats0.numLoadInsts               0                       # Number of load instructions executed (Count)
system.cpu.executeStats0.numStoreInsts        8310830                       # Number of stores executed (Count)
system.cpu.executeStats0.instRate                   0                       # Inst execution rate ((Count/Cycle))
system.cpu.executeStats0.numFpAluAccesses      5710672                       # Number of float alu accesses (Count)
system.cpu.executeStats0.numFpRegReads        3979108                       # Number of times the floating registers were read (Count)
system.cpu.executeStats0.numFpRegWrites       3519193                       # Number of times the floating registers were written (Count)
system.cpu.executeStats0.numIntAluAccesses     39343705                       # Number of integer alu accesses (Count)
system.cpu.executeStats0.numIntRegReads      43422910                       # Number of times the integer registers were read (Count)
system.cpu.executeStats0.numIntRegWrites     27842985                       # Number of times the integer registers were written (Count)
system.cpu.executeStats0.numMemRefs           8310830                       # Number of memory refs (Count)
system.cpu.executeStats0.numMiscRegReads     18117311                       # Number of times the Misc registers were read (Count)
system.cpu.executeStats0.numMiscRegWrites          711                       # Number of times the Misc registers were written (Count)
system.cpu.executeStats0.numVecAluAccesses            0                       # Number of vector alu accesses (Count)
system.cpu.executeStats0.numDiscardedOps            0                       # Number of ops (including micro ops) which were discarded before commit (Count)
system.cpu.fetchStats0.numInsts              22787217                       # Number of instructions fetched (thread level) (Count)
system.cpu.fetchStats0.numOps                42749916                       # Number of ops (including micro ops) fetched (thread level) (Count)
system.cpu.fetchStats0.fetchRate             0.043978                       # Number of inst fetches per cycle ((Count/Cycle))
system.cpu.fetchStats0.numBranches            4942538                       # Number of branches fetched (Count)
system.cpu.fetchStats0.branchRate            0.009539                       # Number of branch fetches per cycle (Ratio)
system.cpu.fetchStats0.numFetchSuspends             0                       # Number of times Execute suspended instruction fetching (Count)
system.cpu.interrupts.clk_domain.clock         213328                       # Clock period in ticks (Tick)
system.cpu.mmu.dtb.rdAccesses                 6374385                       # TLB accesses on read requests (Count)
system.cpu.mmu.dtb.wrAccesses                 1938992                       # TLB accesses on write requests (Count)
system.cpu.mmu.dtb.rdMisses                      2145                       # TLB misses on read requests (Count)
system.cpu.mmu.dtb.wrMisses                       839                       # TLB misses on write requests (Count)
system.cpu.mmu.dtb.walker.power_state.pwrStateResidencyTicks::UNDEFINED 6908551681890                       # Cumulative time (in ticks) in various power states (Tick)
system.cpu.mmu.itb.rdAccesses                       0                       # TLB accesses on read requests (Count)
system.cpu.mmu.itb.wrAccesses                30457002                       # TLB accesses on write requests (Count)
system.cpu.mmu.itb.rdMisses                         0                       # TLB misses on read requests (Count)
system.cpu.mmu.itb.wrMisses                       483                       # TLB misses on write requests (Count)
system.cpu.mmu.itb.walker.power_state.pwrStateResidencyTicks::UNDEFINED 6908551681890                       # Cumulative time (in ticks) in various power states (Tick)
system.cpu.power_state.pwrStateResidencyTicks::ON 6908551681890                       # Cumulative time (in ticks) in various power states (Tick)
system.cpu.thread_0.numInsts                        0                       # Number of Instructions committed (Count)
system.cpu.thread_0.numOps                          0                       # Number of Ops committed (Count)
system.cpu.thread_0.numMemRefs                      0                       # Number of Memory References (Count)
system.cpu.workload.numSyscalls                   107                       # Number of system calls (Count)
system.mem_ctrl.avgPriority_cpu.inst::samples  30456888.00                       # Average QoS priority value for accepted requests (Count)
system.mem_ctrl.avgPriority_cpu.data::samples   6136175.00                       # Average QoS priority value for accepted requests (Count)
system.mem_ctrl.priorityMinLatency       0.000000018750                       # per QoS priority minimum request to response latency (Second)
system.mem_ctrl.priorityMaxLatency       1.031641254158                       # per QoS priority maximum request to response latency (Second)
system.mem_ctrl.numReadWriteTurnArounds          7149                       # Number of turnarounds from READ to WRITE (Count)
system.mem_ctrl.numWriteReadTurnArounds          7149                       # Number of turnarounds from WRITE to READ (Count)
system.mem_ctrl.numStayReadState             76642089                       # Number of times bus staying in READ state (Count)
system.mem_ctrl.numStayWriteState              121534                       # Number of times bus staying in WRITE state (Count)
system.mem_ctrl.readReqs                     36830981                       # Number of read requests accepted (Count)
system.mem_ctrl.writeReqs                     1938663                       # Number of write requests accepted (Count)
system.mem_ctrl.readBursts                   36830981                       # Number of controller read bursts, including those serviced by the write queue (Count)
system.mem_ctrl.writeBursts                   1938663                       # Number of controller write bursts, including those merged in the write queue (Count)
system.mem_ctrl.servicedByWrQ                  366248                       # Number of controller read bursts serviced by the write queue (Count)
system.mem_ctrl.mergedWrBursts                1810333                       # Number of controller write bursts merged with an existing one (Count)
system.mem_ctrl.neitherReadNorWriteReqs             0                       # Number of requests that are neither read nor write (Count)
system.mem_ctrl.avgRdQLen                        1.00                       # Average read queue length when enqueuing ((Count/Tick))
system.mem_ctrl.avgWrQLen                       25.70                       # Average write queue length when enqueuing ((Count/Tick))
system.mem_ctrl.numRdRetry                          0                       # Number of times read queue was full causing retry (Count)
system.mem_ctrl.numWrRetry                          0                       # Number of times write queue was full causing retry (Count)
system.mem_ctrl.readPktSize::0                1096035                       # Read request sizes (log2) (Count)
system.mem_ctrl.readPktSize::1                  24175                       # Read request sizes (log2) (Count)
system.mem_ctrl.readPktSize::2                  89574                       # Read request sizes (log2) (Count)
system.mem_ctrl.readPktSize::3               35621197                       # Read request sizes (log2) (Count)
system.mem_ctrl.readPktSize::4                      0                       # Read request sizes (log2) (Count)
system.mem_ctrl.readPktSize::5                      0                       # Read request sizes (log2) (Count)
system.mem_ctrl.readPktSize::6                      0                       # Read request sizes (log2) (Count)
system.mem_ctrl.writePktSize::0                 30736                       # Write request sizes (log2) (Count)
system.mem_ctrl.writePktSize::1                 11202                       # Write request sizes (log2) (Count)
system.mem_ctrl.writePktSize::2                 35381                       # Write request sizes (log2) (Count)
system.mem_ctrl.writePktSize::3               1861344                       # Write request sizes (log2) (Count)
system.mem_ctrl.writePktSize::4                     0                       # Write request sizes (log2) (Count)
system.mem_ctrl.writePktSize::5                     0                       # Write request sizes (log2) (Count)
system.mem_ctrl.writePktSize::6                     0                       # Write request sizes (log2) (Count)
system.mem_ctrl.rdQLenPdf::0                 36462198                       # What read queue length does an incoming req see (Count)
system.mem_ctrl.rdQLenPdf::1                     2535                       # What read queue length does an incoming req see (Count)
system.mem_ctrl.rdQLenPdf::2                        0                       # What read queue length does an incoming req see (Count)
system.mem_ctrl.rdQLenPdf::3                        0                       # What read queue length does an incoming req see (Count)
system.mem_ctrl.rdQLenPdf::4                        0                       # What read queue length does an incoming req see (Count)
system.mem_ctrl.rdQLenPdf::5                        0                       # What read queue length does an incoming req see (Count)
system.mem_ctrl.rdQLenPdf::6                        0                       # What read queue length does an incoming req see (Count)
system.mem_ctrl.rdQLenPdf::7                        0                       # What read queue length does an incoming req see (Count)
system.mem_ctrl.rdQLenPdf::8                        0                       # What read queue length does an incoming req see (Count)
system.mem_ctrl.rdQLenPdf::9                        0                       # What read queue length does an incoming req see (Count)
system.mem_ctrl.rdQLenPdf::10                       0                       # What read queue length does an incoming req see (Count)
system.mem_ctrl.rdQLenPdf::11                       0                       # What read queue length does an incoming req see (Count)
system.mem_ctrl.rdQLenPdf::12                       0                       # What read queue length does an incoming req see (Count)
system.mem_ctrl.rdQLenPdf::13                       0                       # What read queue length does an incoming req see (Count)
system.mem_ctrl.rdQLenPdf::14                       0                       # What read queue length does an incoming req see (Count)
system.mem_ctrl.rdQLenPdf::15                       0                       # What read queue length does an incoming req see (Count)
system.mem_ctrl.rdQLenPdf::16                       0                       # What read queue length does an incoming req see (Count)
system.mem_ctrl.rdQLenPdf::17                       0                       # What read queue length does an incoming req see (Count)
system.mem_ctrl.rdQLenPdf::18                       0                       # What read queue length does an incoming req see (Count)
system.mem_ctrl.rdQLenPdf::19                       0                       # What read queue length does an incoming req see (Count)
system.mem_ctrl.rdQLenPdf::20                       0                       # What read queue length does an incoming req see (Count)
system.mem_ctrl.rdQLenPdf::21                       0                       # What read queue length does an incoming req see (Count)
system.mem_ctrl.rdQLenPdf::22                       0                       # What read queue length does an incoming req see (Count)
system.mem_ctrl.rdQLenPdf::23                       0                       # What read queue length does an incoming req see (Count)
system.mem_ctrl.rdQLenPdf::24                       0                       # What read queue length does an incoming req see (Count)
system.mem_ctrl.rdQLenPdf::25                       0                       # What read queue length does an incoming req see (Count)
system.mem_ctrl.rdQLenPdf::26                       0                       # What read queue length does an incoming req see (Count)
system.mem_ctrl.rdQLenPdf::27                       0                       # What read queue length does an incoming req see (Count)
system.mem_ctrl.rdQLenPdf::28                       0                       # What read queue length does an incoming req see (Count)
system.mem_ctrl.rdQLenPdf::29                       0                       # What read queue length does an incoming req see (Count)
system.mem_ctrl.rdQLenPdf::30                       0                       # What read queue length does an incoming req see (Count)
system.mem_ctrl.rdQLenPdf::31                       0                       # What read queue length does an incoming req see (Count)
system.mem_ctrl.wrQLenPdf::0                        1                       # What write queue length does an incoming req see (Count)
system.mem_ctrl.wrQLenPdf::1                        1                       # What write queue length does an incoming req see (Count)
system.mem_ctrl.wrQLenPdf::2                        1                       # What write queue length does an incoming req see (Count)
system.mem_ctrl.wrQLenPdf::3                        1                       # What write queue length does an incoming req see (Count)
system.mem_ctrl.wrQLenPdf::4                        1                       # What write queue length does an incoming req see (Count)
system.mem_ctrl.wrQLenPdf::5                        1                       # What write queue length does an incoming req see (Count)
system.mem_ctrl.wrQLenPdf::6                        1                       # What write queue length does an incoming req see (Count)
system.mem_ctrl.wrQLenPdf::7                        1                       # What write queue length does an incoming req see (Count)
system.mem_ctrl.wrQLenPdf::8                        1                       # What write queue length does an incoming req see (Count)
system.mem_ctrl.wrQLenPdf::9                        1                       # What write queue length does an incoming req see (Count)
system.mem_ctrl.wrQLenPdf::10                       1                       # What write queue length does an incoming req see (Count)
system.mem_ctrl.wrQLenPdf::11                       1                       # What write queue length does an incoming req see (Count)
system.mem_ctrl.wrQLenPdf::12                       1                       # What write queue length does an incoming req see (Count)
system.mem_ctrl.wrQLenPdf::13                       1                       # What write queue length does an incoming req see (Count)
system.mem_ctrl.wrQLenPdf::14                       1                       # What write queue length does an incoming req see (Count)
system.mem_ctrl.wrQLenPdf::15                    6956                       # What write queue length does an incoming req see (Count)
system.mem_ctrl.wrQLenPdf::16                    6967                       # What write queue length does an incoming req see (Count)
system.mem_ctrl.wrQLenPdf::17                    7150                       # What write queue length does an incoming req see (Count)
system.mem_ctrl.wrQLenPdf::18                    7150                       # What write queue length does an incoming req see (Count)
system.mem_ctrl.wrQLenPdf::19                    7150                       # What write queue length does an incoming req see (Count)
system.mem_ctrl.wrQLenPdf::20                    7150                       # What write queue length does an incoming req see (Count)
system.mem_ctrl.wrQLenPdf::21                    7150                       # What write queue length does an incoming req see (Count)
system.mem_ctrl.wrQLenPdf::22                    7150                       # What write queue length does an incoming req see (Count)
system.mem_ctrl.wrQLenPdf::23                    7150                       # What write queue length does an incoming req see (Count)
system.mem_ctrl.wrQLenPdf::24                    7150                       # What write queue length does an incoming req see (Count)
system.mem_ctrl.wrQLenPdf::25                    7149                       # What write queue length does an incoming req see (Count)
system.mem_ctrl.wrQLenPdf::26                    7149                       # What write queue length does an incoming req see (Count)
system.mem_ctrl.wrQLenPdf::27                    7149                       # What write queue length does an incoming req see (Count)
system.mem_ctrl.wrQLenPdf::28                    7149                       # What write queue length does an incoming req see (Count)
system.mem_ctrl.wrQLenPdf::29                    7149                       # What write queue length does an incoming req see (Count)
system.mem_ctrl.wrQLenPdf::30                    7149                       # What write queue length does an incoming req see (Count)
system.mem_ctrl.wrQLenPdf::31                    7149                       # What write queue length does an incoming req see (Count)
system.mem_ctrl.wrQLenPdf::32                    7149                       # What write queue length does an incoming req see (Count)
system.mem_ctrl.wrQLenPdf::33                       0                       # What write queue length does an incoming req see (Count)
system.mem_ctrl.wrQLenPdf::34                       0                       # What write queue length does an incoming req see (Count)
system.mem_ctrl.wrQLenPdf::35                       0                       # What write queue length does an incoming req see (Count)
system.mem_ctrl.wrQLenPdf::36                       0                       # What write queue length does an incoming req see (Count)
system.mem_ctrl.wrQLenPdf::37                       0                       # What write queue length does an incoming req see (Count)
system.mem_ctrl.wrQLenPdf::38                       0                       # What write queue length does an incoming req see (Count)
system.mem_ctrl.wrQLenPdf::39                       0                       # What write queue length does an incoming req see (Count)
system.mem_ctrl.wrQLenPdf::40                       0                       # What write queue length does an incoming req see (Count)
system.mem_ctrl.wrQLenPdf::41                       0                       # What write queue length does an incoming req see (Count)
system.mem_ctrl.wrQLenPdf::42                       0                       # What write queue length does an incoming req see (Count)
system.mem_ctrl.wrQLenPdf::43                       0                       # What write queue length does an incoming req see (Count)
system.mem_ctrl.wrQLenPdf::44                       0                       # What write queue length does an incoming req see (Count)
system.mem_ctrl.wrQLenPdf::45                       0                       # What write queue length does an incoming req see (Count)
system.mem_ctrl.wrQLenPdf::46                       0                       # What write queue length does an incoming req see (Count)
system.mem_ctrl.wrQLenPdf::47                       0                       # What write queue length does an incoming req see (Count)
system.mem_ctrl.wrQLenPdf::48                       0                       # What write queue length does an incoming req see (Count)
system.mem_ctrl.wrQLenPdf::49                       0                       # What write queue length does an incoming req see (Count)
system.mem_ctrl.wrQLenPdf::50                       0                       # What write queue length does an incoming req see (Count)
system.mem_ctrl.wrQLenPdf::51                       0                       # What write queue length does an incoming req see (Count)
system.mem_ctrl.wrQLenPdf::52                       0                       # What write queue length does an incoming req see (Count)
system.mem_ctrl.wrQLenPdf::53                       0                       # What write queue length does an incoming req see (Count)
system.mem_ctrl.wrQLenPdf::54                       0                       # What write queue length does an incoming req see (Count)
system.mem_ctrl.wrQLenPdf::55                       0                       # What write queue length does an incoming req see (Count)
system.mem_ctrl.wrQLenPdf::56                       0                       # What write queue length does an incoming req see (Count)
system.mem_ctrl.wrQLenPdf::57                       0                       # What write queue length does an incoming req see (Count)
system.mem_ctrl.wrQLenPdf::58                       0                       # What write queue length does an incoming req see (Count)
system.mem_ctrl.wrQLenPdf::59                       0                       # What write queue length does an incoming req see (Count)
system.mem_ctrl.wrQLenPdf::60                       0                       # What write queue length does an incoming req see (Count)
system.mem_ctrl.wrQLenPdf::61                       0                       # What write queue length does an incoming req see (Count)
system.mem_ctrl.wrQLenPdf::62                       0                       # What write queue length does an incoming req see (Count)
system.mem_ctrl.wrQLenPdf::63                       0                       # What write queue length does an incoming req see (Count)
system.mem_ctrl.rdPerTurnAround::samples         7149                       # Reads before turning the bus around for writes (Count)
system.mem_ctrl.rdPerTurnAround::mean     5100.592251                       # Reads before turning the bus around for writes (Count)
system.mem_ctrl.rdPerTurnAround::stdev   29578.384370                       # Reads before turning the bus around for writes (Count)
system.mem_ctrl.rdPerTurnAround::0-131071         7147     99.97%     99.97% # Reads before turning the bus around for writes (Count)
system.mem_ctrl.rdPerTurnAround::393216-524287            1      0.01%     99.99% # Reads before turning the bus around for writes (Count)
system.mem_ctrl.rdPerTurnAround::2.22822e+06-2.3593e+06            1      0.01%    100.00% # Reads before turning the bus around for writes (Count)
system.mem_ctrl.rdPerTurnAround::total           7149                       # Reads before turning the bus around for writes (Count)
system.mem_ctrl.wrPerTurnAround::samples         7149                       # Writes before turning the bus around for reads (Count)
system.mem_ctrl.wrPerTurnAround::mean       17.947265                       # Writes before turning the bus around for reads (Count)
system.mem_ctrl.wrPerTurnAround::gmean      17.944233                       # Writes before turning the bus around for reads (Count)
system.mem_ctrl.wrPerTurnAround::stdev       0.318063                       # Writes before turning the bus around for reads (Count)
system.mem_ctrl.wrPerTurnAround::16               183      2.56%      2.56% # Writes before turning the bus around for reads (Count)
system.mem_ctrl.wrPerTurnAround::17                11      0.15%      2.71% # Writes before turning the bus around for reads (Count)
system.mem_ctrl.wrPerTurnAround::18              6955     97.29%    100.00% # Writes before turning the bus around for reads (Count)
system.mem_ctrl.wrPerTurnAround::total           7149                       # Writes before turning the bus around for reads (Count)
system.mem_ctrl.bytesReadWrQ                 23439872                       # Total number of bytes read from write queue (Byte)
system.mem_ctrl.bytesReadSys                286465965                       # Total read bytes from the system interface side (Byte)
system.mem_ctrl.bytesWrittenSys              15085404                       # Total written bytes from the system interface side (Byte)
system.mem_ctrl.avgRdBWSys               41465415.35629511                       # Average system read bandwidth in Byte/s ((Byte/Second))
system.mem_ctrl.avgWrBWSys               2183584.15694345                       # Average system write bandwidth in Byte/s ((Byte/Second))
system.mem_ctrl.totGap                   6908551481895                       # Total gap between requests (Tick)
system.mem_ctrl.avgGap                      178194.87                       # Average gap between requests ((Tick/Count))
system.mem_ctrl.requestorReadBytes::cpu.inst    243655104                       # Per-requestor bytes read from memory (Byte)
system.mem_ctrl.requestorReadBytes::cpu.data     39887824                       # Per-requestor bytes read from memory (Byte)
system.mem_ctrl.requestorWriteBytes::cpu.data      1023249                       # Per-requestor bytes write to memory (Byte)
system.mem_ctrl.requestorReadRate::cpu.inst 35268622.892221353948                       # Per-requestor bytes read from memory rate ((Byte/Second))
system.mem_ctrl.requestorReadRate::cpu.data 5773688.297731273808                       # Per-requestor bytes read from memory rate ((Byte/Second))
system.mem_ctrl.requestorWriteRate::cpu.data 148113.388611151808                       # Per-requestor bytes write to memory rate ((Byte/Second))
system.mem_ctrl.requestorReadAccesses::cpu.inst     30456888                       # Per-requestor read serviced memory accesses (Count)
system.mem_ctrl.requestorReadAccesses::cpu.data      6374093                       # Per-requestor read serviced memory accesses (Count)
system.mem_ctrl.requestorWriteAccesses::cpu.data      1938663                       # Per-requestor write serviced memory accesses (Count)
system.mem_ctrl.requestorReadTotalLat::cpu.inst 735682304957                       # Per-requestor read total memory access latency (Tick)
system.mem_ctrl.requestorReadTotalLat::cpu.data 169190110151                       # Per-requestor read total memory access latency (Tick)
system.mem_ctrl.requestorWriteTotalLat::cpu.data 174992667278411                       # Per-requestor write total memory access latency (Tick)
system.mem_ctrl.requestorReadAvgLat::cpu.inst     24154.87                       # Per-requestor read average memory access latency ((Tick/Count))
system.mem_ctrl.requestorReadAvgLat::cpu.data     26543.40                       # Per-requestor read average memory access latency ((Tick/Count))
system.mem_ctrl.requestorWriteAvgLat::cpu.data  90264613.95                       # Per-requestor write average memory access latency ((Tick/Count))
system.mem_ctrl.dram.bytesRead::cpu.inst    243655096                       # Number of bytes read from this memory (Byte)
system.mem_ctrl.dram.bytesRead::cpu.data     42810861                       # Number of bytes read from this memory (Byte)
system.mem_ctrl.dram.bytesRead::total       286465957                       # Number of bytes read from this memory (Byte)
system.mem_ctrl.dram.bytesInstRead::cpu.inst    243655096                       # Number of instructions bytes read from this memory (Byte)
system.mem_ctrl.dram.bytesInstRead::total    243655096                       # Number of instructions bytes read from this memory (Byte)
system.mem_ctrl.dram.bytesWritten::cpu.data     15085404                       # Number of bytes written to this memory (Byte)
system.mem_ctrl.dram.bytesWritten::total     15085404                       # Number of bytes written to this memory (Byte)
system.mem_ctrl.dram.numReads::cpu.inst      30456887                       # Number of read requests responded to by this memory (Count)
system.mem_ctrl.dram.numReads::cpu.data       6374093                       # Number of read requests responded to by this memory (Count)
system.mem_ctrl.dram.numReads::total         36830980                       # Number of read requests responded to by this memory (Count)
system.mem_ctrl.dram.numWrites::cpu.data      1938663                       # Number of write requests responded to by this memory (Count)
system.mem_ctrl.dram.numWrites::total         1938663                       # Number of write requests responded to by this memory (Count)
system.mem_ctrl.dram.bwRead::cpu.inst        35268622                       # Total read bandwidth from this memory ((Byte/Second))
system.mem_ctrl.dram.bwRead::cpu.data         6196792                       # Total read bandwidth from this memory ((Byte/Second))
system.mem_ctrl.dram.bwRead::total           41465414                       # Total read bandwidth from this memory ((Byte/Second))
system.mem_ctrl.dram.bwInstRead::cpu.inst     35268622                       # Instruction read bandwidth from this memory ((Byte/Second))
system.mem_ctrl.dram.bwInstRead::total       35268622                       # Instruction read bandwidth from this memory ((Byte/Second))
system.mem_ctrl.dram.bwWrite::cpu.data        2183584                       # Write bandwidth from this memory ((Byte/Second))
system.mem_ctrl.dram.bwWrite::total           2183584                       # Write bandwidth from this memory ((Byte/Second))
system.mem_ctrl.dram.bwTotal::cpu.inst       35268622                       # Total bandwidth to/from this memory ((Byte/Second))
system.mem_ctrl.dram.bwTotal::cpu.data        8380377                       # Total bandwidth to/from this memory ((Byte/Second))
system.mem_ctrl.dram.bwTotal::total          43648998                       # Total bandwidth to/from this memory ((Byte/Second))
system.mem_ctrl.dram.readBursts              36464733                       # Number of DRAM read bursts (Count)
system.mem_ctrl.dram.writeBursts               128305                       # Number of DRAM write bursts (Count)
system.mem_ctrl.dram.perBankRdBursts::0       3020377                       # Per bank write bursts (Count)
system.mem_ctrl.dram.perBankRdBursts::1        296495                       # Per bank write bursts (Count)
system.mem_ctrl.dram.perBankRdBursts::2        239437                       # Per bank write bursts (Count)
system.mem_ctrl.dram.perBankRdBursts::3       3855874                       # Per bank write bursts (Count)
system.mem_ctrl.dram.perBankRdBursts::4        869416                       # Per bank write bursts (Count)
system.mem_ctrl.dram.perBankRdBursts::5        660985                       # Per bank write bursts (Count)
system.mem_ctrl.dram.perBankRdBursts::6       1558980                       # Per bank write bursts (Count)
system.mem_ctrl.dram.perBankRdBursts::7       1318212                       # Per bank write bursts (Count)
system.mem_ctrl.dram.perBankRdBursts::8       4866154                       # Per bank write bursts (Count)
system.mem_ctrl.dram.perBankRdBursts::9       7468415                       # Per bank write bursts (Count)
system.mem_ctrl.dram.perBankRdBursts::10       165100                       # Per bank write bursts (Count)
system.mem_ctrl.dram.perBankRdBursts::11      7805176                       # Per bank write bursts (Count)
system.mem_ctrl.dram.perBankRdBursts::12       239900                       # Per bank write bursts (Count)
system.mem_ctrl.dram.perBankRdBursts::13       477349                       # Per bank write bursts (Count)
system.mem_ctrl.dram.perBankRdBursts::14      3370232                       # Per bank write bursts (Count)
system.mem_ctrl.dram.perBankRdBursts::15       252631                       # Per bank write bursts (Count)
system.mem_ctrl.dram.perBankWrBursts::0         17680                       # Per bank write bursts (Count)
system.mem_ctrl.dram.perBankWrBursts::1          6360                       # Per bank write bursts (Count)
system.mem_ctrl.dram.perBankWrBursts::2          8289                       # Per bank write bursts (Count)
system.mem_ctrl.dram.perBankWrBursts::3          7342                       # Per bank write bursts (Count)
system.mem_ctrl.dram.perBankWrBursts::4          7516                       # Per bank write bursts (Count)
system.mem_ctrl.dram.perBankWrBursts::5          6327                       # Per bank write bursts (Count)
system.mem_ctrl.dram.perBankWrBursts::6          4478                       # Per bank write bursts (Count)
system.mem_ctrl.dram.perBankWrBursts::7          3642                       # Per bank write bursts (Count)
system.mem_ctrl.dram.perBankWrBursts::8          7007                       # Per bank write bursts (Count)
system.mem_ctrl.dram.perBankWrBursts::9          6674                       # Per bank write bursts (Count)
system.mem_ctrl.dram.perBankWrBursts::10         5365                       # Per bank write bursts (Count)
system.mem_ctrl.dram.perBankWrBursts::11         5911                       # Per bank write bursts (Count)
system.mem_ctrl.dram.perBankWrBursts::12         5678                       # Per bank write bursts (Count)
system.mem_ctrl.dram.perBankWrBursts::13        11372                       # Per bank write bursts (Count)
system.mem_ctrl.dram.perBankWrBursts::14        12686                       # Per bank write bursts (Count)
system.mem_ctrl.dram.perBankWrBursts::15        11978                       # Per bank write bursts (Count)
system.mem_ctrl.dram.totQLat             221158671358                       # Total ticks spent queuing (Tick)
system.mem_ctrl.dram.totBusLat           182323665000                       # Total ticks spent in databus transfers (Tick)
system.mem_ctrl.dram.totMemAccLat        904872415108                       # Total ticks spent from burst creation until serviced by the DRAM (Tick)
system.mem_ctrl.dram.avgQLat                  6065.00                       # Average queueing delay per DRAM burst ((Tick/Count))
system.mem_ctrl.dram.avgBusLat                5000.00                       # Average bus latency per DRAM burst ((Tick/Count))
system.mem_ctrl.dram.avgMemAccLat            24815.00                       # Average memory access latency per DRAM burst ((Tick/Count))
system.mem_ctrl.dram.readRowHits             31986840                       # Number of row buffer hits during reads (Count)
system.mem_ctrl.dram.writeRowHits              116843                       # Number of row buffer hits during writes (Count)
system.mem_ctrl.dram.readRowHitRate             87.72                       # Row buffer hit rate for reads (Ratio)
system.mem_ctrl.dram.writeRowHitRate            91.07                       # Row buffer hit rate for writes (Ratio)
system.mem_ctrl.dram.bytesPerActivate::samples      4489350                       # Bytes accessed per row activation (Byte)
system.mem_ctrl.dram.bytesPerActivate::mean   521.668692                       # Bytes accessed per row activation (Byte)
system.mem_ctrl.dram.bytesPerActivate::gmean   339.298671                       # Bytes accessed per row activation (Byte)
system.mem_ctrl.dram.bytesPerActivate::stdev   395.944995                       # Bytes accessed per row activation (Byte)
system.mem_ctrl.dram.bytesPerActivate::0-127       758126     16.89%     16.89% # Bytes accessed per row activation (Byte)
system.mem_ctrl.dram.bytesPerActivate::128-255       888273     19.79%     36.67% # Bytes accessed per row activation (Byte)
system.mem_ctrl.dram.bytesPerActivate::256-383       500657     11.15%     47.83% # Bytes accessed per row activation (Byte)
system.mem_ctrl.dram.bytesPerActivate::384-511       258289      5.75%     53.58% # Bytes accessed per row activation (Byte)
system.mem_ctrl.dram.bytesPerActivate::512-639       348321      7.76%     61.34% # Bytes accessed per row activation (Byte)
system.mem_ctrl.dram.bytesPerActivate::640-767       112984      2.52%     63.85% # Bytes accessed per row activation (Byte)
system.mem_ctrl.dram.bytesPerActivate::768-895        82245      1.83%     65.69% # Bytes accessed per row activation (Byte)
system.mem_ctrl.dram.bytesPerActivate::896-1023        51378      1.14%     66.83% # Bytes accessed per row activation (Byte)
system.mem_ctrl.dram.bytesPerActivate::1024-1151      1489077     33.17%    100.00% # Bytes accessed per row activation (Byte)
system.mem_ctrl.dram.bytesPerActivate::total      4489350                       # Bytes accessed per row activation (Byte)
system.mem_ctrl.dram.dramBytesRead         2333742912                       # Total bytes read (Byte)
system.mem_ctrl.dram.dramBytesWritten         8211520                       # Total bytes written (Byte)
system.mem_ctrl.dram.avgRdBW               337.804944                       # Average DRAM read bandwidth in MiBytes/s ((Byte/Second))
system.mem_ctrl.dram.avgWrBW                 1.188602                       # Average DRAM write bandwidth in MiBytes/s ((Byte/Second))
system.mem_ctrl.dram.peakBW                  12800.00                       # Theoretical peak bandwidth in MiByte/s ((Byte/Second))
system.mem_ctrl.dram.busUtil                     2.65                       # Data bus utilization in percentage (Ratio)
system.mem_ctrl.dram.busUtilRead                 2.64                       # Data bus utilization in percentage for reads (Ratio)
system.mem_ctrl.dram.busUtilWrite                0.01                       # Data bus utilization in percentage for writes (Ratio)
system.mem_ctrl.dram.pageHitRate                87.73                       # Row buffer hit rate, read and write combined (Ratio)
system.mem_ctrl.dram.power_state.pwrStateResidencyTicks::UNDEFINED 6908551681890                       # Cumulative time (in ticks) in various power states (Tick)
system.mem_ctrl.dram.rank0.actEnergy      12816228600                       # Energy for activate commands per rank (pJ) (Joule)
system.mem_ctrl.dram.rank0.preEnergy       6811983255                       # Energy for precharge commands per rank (pJ) (Joule)
system.mem_ctrl.dram.rank0.readEnergy     84393200640                       # Energy for read commands per rank (pJ) (Joule)
system.mem_ctrl.dram.rank0.writeEnergy      321729480                       # Energy for write commands per rank (pJ) (Joule)
system.mem_ctrl.dram.rank0.refreshEnergy 545354706000.000061                       # Energy for refresh commands per rank (pJ) (Joule)
system.mem_ctrl.dram.rank0.actBackEnergy 2390623310880                       # Energy for active background per rank (pJ) (Joule)
system.mem_ctrl.dram.rank0.preBackEnergy 639727373760                       # Energy for precharge background per rank (pJ) (Joule)
system.mem_ctrl.dram.rank0.actPowerDownEnergy            0                       # Energy for active power-down per rank (pJ) (Joule)
system.mem_ctrl.dram.rank0.prePowerDownEnergy            0                       # Energy for precharge power-down per rank (pJ) (Joule)
system.mem_ctrl.dram.rank0.selfRefreshEnergy            0                       # Energy for self refresh per rank (pJ) (Joule)
system.mem_ctrl.dram.rank0.totalEnergy   3680048532615                       # Total energy per rank (pJ) (Joule)
system.mem_ctrl.dram.rank0.averagePower    532.680177                       # Core power per rank (mW) (Watt)
system.mem_ctrl.dram.rank0.totalIdleTime            0                       # Total Idle time Per DRAM Rank (Tick)
system.mem_ctrl.dram.rank0.pwrStateTime::IDLE 1640701971181                       # Time in different power states (Tick)
system.mem_ctrl.dram.rank0.pwrStateTime::REF 230691500000                       # Time in different power states (Tick)
system.mem_ctrl.dram.rank0.pwrStateTime::SREF            0                       # Time in different power states (Tick)
system.mem_ctrl.dram.rank0.pwrStateTime::PRE_PDN            0                       # Time in different power states (Tick)
system.mem_ctrl.dram.rank0.pwrStateTime::ACT 5037158210709                       # Time in different power states (Tick)
system.mem_ctrl.dram.rank0.pwrStateTime::ACT_PDN            0                       # Time in different power states (Tick)
system.mem_ctrl.dram.rank1.actEnergy      19237766100                       # Energy for activate commands per rank (pJ) (Joule)
system.mem_ctrl.dram.rank1.preEnergy      10225099995                       # Energy for precharge commands per rank (pJ) (Joule)
system.mem_ctrl.dram.rank1.readEnergy    175964992980                       # Energy for read commands per rank (pJ) (Joule)
system.mem_ctrl.dram.rank1.writeEnergy      348022620                       # Energy for write commands per rank (pJ) (Joule)
system.mem_ctrl.dram.rank1.refreshEnergy 545354706000.000061                       # Energy for refresh commands per rank (pJ) (Joule)
system.mem_ctrl.dram.rank1.actBackEnergy 2740625006790                       # Energy for active background per rank (pJ) (Joule)
system.mem_ctrl.dram.rank1.preBackEnergy 344989103520                       # Energy for precharge background per rank (pJ) (Joule)
system.mem_ctrl.dram.rank1.actPowerDownEnergy            0                       # Energy for active power-down per rank (pJ) (Joule)
system.mem_ctrl.dram.rank1.prePowerDownEnergy            0                       # Energy for precharge power-down per rank (pJ) (Joule)
system.mem_ctrl.dram.rank1.selfRefreshEnergy            0                       # Energy for self refresh per rank (pJ) (Joule)
system.mem_ctrl.dram.rank1.totalEnergy   3836744698005                       # Total energy per rank (pJ) (Joule)
system.mem_ctrl.dram.rank1.averagePower    555.361655                       # Core power per rank (mW) (Watt)
system.mem_ctrl.dram.rank1.totalIdleTime            0                       # Total Idle time Per DRAM Rank (Tick)
system.mem_ctrl.dram.rank1.pwrStateTime::IDLE 863250796083                       # Time in different power states (Tick)
system.mem_ctrl.dram.rank1.pwrStateTime::REF 230691500000                       # Time in different power states (Tick)
system.mem_ctrl.dram.rank1.pwrStateTime::SREF            0                       # Time in different power states (Tick)
system.mem_ctrl.dram.rank1.pwrStateTime::PRE_PDN            0                       # Time in different power states (Tick)
system.mem_ctrl.dram.rank1.pwrStateTime::ACT 5814609385807                       # Time in different power states (Tick)
system.mem_ctrl.dram.rank1.pwrStateTime::ACT_PDN            0                       # Time in different power states (Tick)
system.mem_ctrl.power_state.pwrStateResidencyTicks::UNDEFINED 6908551681890                       # Cumulative time (in ticks) in various power states (Tick)
system.membus.transDist::ReadReq             36830471                       # Transaction distribution (Count)
system.membus.transDist::ReadResp            36830470                       # Transaction distribution (Count)
system.membus.transDist::WriteReq             1938153                       # Transaction distribution (Count)
system.membus.transDist::WriteResp            1938153                       # Transaction distribution (Count)
system.membus.transDist::LockedRMWReadReq          510                       # Transaction distribution (Count)
system.membus.transDist::LockedRMWReadResp          510                       # Transaction distribution (Count)
[...]
system.mem_ctrl.dram.bwRead::cpu.data         8042969                       # Total read bandwidth from this memory ((Byte/Second))
system.mem_ctrl.dram.bwRead::total           40176114                       # Total read bandwidth from this memory ((Byte/Second))
system.mem_ctrl.dram.bwInstRead::cpu.inst     32133144                       # Instruction read bandwidth from this memory ((Byte/Second))
system.mem_ctrl.dram.bwInstRead::total       32133144                       # Instruction read bandwidth from this memory ((Byte/Second))
system.mem_ctrl.dram.bwWrite::cpu.data        4475582                       # Write bandwidth from this memory ((Byte/Second))
system.mem_ctrl.dram.bwWrite::total           4475582                       # Write bandwidth from this memory ((Byte/Second))
system.mem_ctrl.dram.bwTotal::cpu.inst       32133144                       # Total bandwidth to/from this memory ((Byte/Second))
system.mem_ctrl.dram.bwTotal::cpu.data       12518551                       # Total bandwidth to/from this memory ((Byte/Second))
system.mem_ctrl.dram.bwTotal::total          44651695                       # Total bandwidth to/from this memory ((Byte/Second))
system.mem_ctrl.dram.readBursts               3123871                       # Number of DRAM read bursts (Count)
system.mem_ctrl.dram.writeBursts                 6678                       # Number of DRAM write bursts (Count)
system.mem_ctrl.dram.perBankRdBursts::0        206851                       # Per bank write bursts (Count)
system.mem_ctrl.dram.perBankRdBursts::1         94485                       # Per bank write bursts (Count)
system.mem_ctrl.dram.perBankRdBursts::2         43820                       # Per bank write bursts (Count)
system.mem_ctrl.dram.perBankRdBursts::3         33721                       # Per bank write bursts (Count)
system.mem_ctrl.dram.perBankRdBursts::4         10268                       # Per bank write bursts (Count)
system.mem_ctrl.dram.perBankRdBursts::5          3478                       # Per bank write bursts (Count)
system.mem_ctrl.dram.perBankRdBursts::6       1307426                       # Per bank write bursts (Count)
system.mem_ctrl.dram.perBankRdBursts::7        995797                       # Per bank write bursts (Count)
system.mem_ctrl.dram.perBankRdBursts::8        229889                       # Per bank write bursts (Count)
system.mem_ctrl.dram.perBankRdBursts::9          4908                       # Per bank write bursts (Count)
system.mem_ctrl.dram.perBankRdBursts::10         2550                       # Per bank write bursts (Count)
system.mem_ctrl.dram.perBankRdBursts::11         5277                       # Per bank write bursts (Count)
system.mem_ctrl.dram.perBankRdBursts::12         2550                       # Per bank write bursts (Count)
system.mem_ctrl.dram.perBankRdBursts::13       175243                       # Per bank write bursts (Count)
system.mem_ctrl.dram.perBankRdBursts::14         3765                       # Per bank write bursts (Count)
system.mem_ctrl.dram.perBankRdBursts::15         3843                       # Per bank write bursts (Count)
system.mem_ctrl.dram.perBankWrBursts::0          1333                       # Per bank write bursts (Count)
system.mem_ctrl.dram.perBankWrBursts::1           468                       # Per bank write bursts (Count)
system.mem_ctrl.dram.perBankWrBursts::2           419                       # Per bank write bursts (Count)
system.mem_ctrl.dram.perBankWrBursts::3           672                       # Per bank write bursts (Count)
system.mem_ctrl.dram.perBankWrBursts::4           297                       # Per bank write bursts (Count)
system.mem_ctrl.dram.perBankWrBursts::5           272                       # Per bank write bursts (Count)
system.mem_ctrl.dram.perBankWrBursts::6           270                       # Per bank write bursts (Count)
system.mem_ctrl.dram.perBankWrBursts::7           256                       # Per bank write bursts (Count)
system.mem_ctrl.dram.perBankWrBursts::8           287                       # Per bank write bursts (Count)
system.mem_ctrl.dram.perBankWrBursts::9           274                       # Per bank write bursts (Count)
system.mem_ctrl.dram.perBankWrBursts::10          297                       # Per bank write bursts (Count)
system.mem_ctrl.dram.perBankWrBursts::11          280                       # Per bank write bursts (Count)
system.mem_ctrl.dram.perBankWrBursts::12          328                       # Per bank write bursts (Count)
system.mem_ctrl.dram.perBankWrBursts::13          410                       # Per bank write bursts (Count)
system.mem_ctrl.dram.perBankWrBursts::14          412                       # Per bank write bursts (Count)
system.mem_ctrl.dram.perBankWrBursts::15          403                       # Per bank write bursts (Count)
system.mem_ctrl.dram.totQLat              17673880484                       # Total ticks spent queuing (Tick)
system.mem_ctrl.dram.totBusLat            15619355000                       # Total ticks spent in databus transfers (Tick)
system.mem_ctrl.dram.totMemAccLat         76246461734                       # Total ticks spent from burst creation until serviced by the DRAM (Tick)
system.mem_ctrl.dram.avgQLat                  5657.69                       # Average queueing delay per DRAM burst ((Tick/Count))
system.mem_ctrl.dram.avgBusLat                5000.00                       # Average bus latency per DRAM burst ((Tick/Count))
system.mem_ctrl.dram.avgMemAccLat            24407.69                       # Average memory access latency per DRAM burst ((Tick/Count))
system.mem_ctrl.dram.readRowHits              2592439                       # Number of row buffer hits during reads (Count)
system.mem_ctrl.dram.writeRowHits                5889                       # Number of row buffer hits during writes (Count)
system.mem_ctrl.dram.readRowHitRate             82.99                       # Row buffer hit rate for reads (Ratio)
system.mem_ctrl.dram.writeRowHitRate            88.19                       # Row buffer hit rate for writes (Ratio)
system.mem_ctrl.dram.bytesPerActivate::samples       532218                       # Bytes accessed per row activation (Byte)
system.mem_ctrl.dram.bytesPerActivate::mean   376.449771                       # Bytes accessed per row activation (Byte)
system.mem_ctrl.dram.bytesPerActivate::gmean   237.476138                       # Bytes accessed per row activation (Byte)
system.mem_ctrl.dram.bytesPerActivate::stdev   342.032178                       # Bytes accessed per row activation (Byte)
system.mem_ctrl.dram.bytesPerActivate::0-127       123820     23.26%     23.26% # Bytes accessed per row activation (Byte)
system.mem_ctrl.dram.bytesPerActivate::128-255       152181     28.59%     51.86% # Bytes accessed per row activation (Byte)
system.mem_ctrl.dram.bytesPerActivate::256-383        50775      9.54%     61.40% # Bytes accessed per row activation (Byte)
system.mem_ctrl.dram.bytesPerActivate::384-511        51207      9.62%     71.02% # Bytes accessed per row activation (Byte)
system.mem_ctrl.dram.bytesPerActivate::512-639        12025      2.26%     73.28% # Bytes accessed per row activation (Byte)
system.mem_ctrl.dram.bytesPerActivate::640-767        50195      9.43%     82.71% # Bytes accessed per row activation (Byte)
system.mem_ctrl.dram.bytesPerActivate::768-895          260      0.05%     82.76% # Bytes accessed per row activation (Byte)
system.mem_ctrl.dram.bytesPerActivate::896-1023         9509      1.79%     84.55% # Bytes accessed per row activation (Byte)
system.mem_ctrl.dram.bytesPerActivate::1024-1151        82246     15.45%    100.00% # Bytes accessed per row activation (Byte)
system.mem_ctrl.dram.bytesPerActivate::total       532218                       # Bytes accessed per row activation (Byte)
system.mem_ctrl.dram.dramBytesRead          199927744                       # Total bytes read (Byte)
system.mem_ctrl.dram.dramBytesWritten          427392                       # Total bytes written (Byte)
system.mem_ctrl.dram.avgRdBW               314.585526                       # Average DRAM read bandwidth in MiBytes/s ((Byte/Second))
system.mem_ctrl.dram.avgWrBW                 0.672500                       # Average DRAM write bandwidth in MiBytes/s ((Byte/Second))
system.mem_ctrl.dram.peakBW                  12800.00                       # Theoretical peak bandwidth in MiByte/s ((Byte/Second))
system.mem_ctrl.dram.busUtil                     2.46                       # Data bus utilization in percentage (Ratio)
system.mem_ctrl.dram.busUtilRead                 2.46                       # Data bus utilization in percentage for reads (Ratio)
system.mem_ctrl.dram.busUtilWrite                0.01                       # Data bus utilization in percentage for writes (Ratio)
system.mem_ctrl.dram.pageHitRate                83.00                       # Row buffer hit rate, read and write combined (Ratio)
system.mem_ctrl.dram.power_state.pwrStateResidencyTicks::UNDEFINED 635527471416                       # Cumulative time (in ticks) in various power states (Tick)
system.mem_ctrl.dram.rank0.actEnergy       2893128000                       # Energy for activate commands per rank (pJ) (Joule)
system.mem_ctrl.dram.rank0.preEnergy       1537722615                       # Energy for precharge commands per rank (pJ) (Joule)
system.mem_ctrl.dram.rank0.readEnergy     19248340440                       # Energy for read commands per rank (pJ) (Joule)
system.mem_ctrl.dram.rank0.writeEnergy       20812140                       # Energy for write commands per rank (pJ) (Joule)
system.mem_ctrl.dram.rank0.refreshEnergy 50167531440.000008                       # Energy for refresh commands per rank (pJ) (Joule)
system.mem_ctrl.dram.rank0.actBackEnergy 277973978220                       # Energy for active background per rank (pJ) (Joule)
system.mem_ctrl.dram.rank0.preBackEnergy   9959198880                       # Energy for precharge background per rank (pJ) (Joule)
system.mem_ctrl.dram.rank0.actPowerDownEnergy            0                       # Energy for active power-down per rank (pJ) (Joule)
system.mem_ctrl.dram.rank0.prePowerDownEnergy            0                       # Energy for precharge power-down per rank (pJ) (Joule)
system.mem_ctrl.dram.rank0.selfRefreshEnergy            0                       # Energy for self refresh per rank (pJ) (Joule)
system.mem_ctrl.dram.rank0.totalEnergy   361800711735                       # Total energy per rank (pJ) (Joule)
system.mem_ctrl.dram.rank0.averagePower    569.292010                       # Core power per rank (mW) (Watt)
system.mem_ctrl.dram.rank0.totalIdleTime            0                       # Total Idle time Per DRAM Rank (Tick)
system.mem_ctrl.dram.rank0.pwrStateTime::IDLE  23346558422                       # Time in different power states (Tick)
system.mem_ctrl.dram.rank0.pwrStateTime::REF  21221460000                       # Time in different power states (Tick)
system.mem_ctrl.dram.rank0.pwrStateTime::SREF            0                       # Time in different power states (Tick)
system.mem_ctrl.dram.rank0.pwrStateTime::PRE_PDN            0                       # Time in different power states (Tick)
system.mem_ctrl.dram.rank0.pwrStateTime::ACT 590959452994                       # Time in different power states (Tick)
system.mem_ctrl.dram.rank0.pwrStateTime::ACT_PDN            0                       # Time in different power states (Tick)
system.mem_ctrl.dram.rank1.actEnergy        906929940                       # Energy for activate commands per rank (pJ) (Joule)
system.mem_ctrl.dram.rank1.preEnergy        482044695                       # Energy for precharge commands per rank (pJ) (Joule)
system.mem_ctrl.dram.rank1.readEnergy      3056098500                       # Energy for read commands per rank (pJ) (Joule)
system.mem_ctrl.dram.rank1.writeEnergy       14047020                       # Energy for write commands per rank (pJ) (Joule)
system.mem_ctrl.dram.rank1.refreshEnergy 50167531440.000008                       # Energy for refresh commands per rank (pJ) (Joule)
system.mem_ctrl.dram.rank1.actBackEnergy 234546649500                       # Energy for active background per rank (pJ) (Joule)
system.mem_ctrl.dram.rank1.preBackEnergy  46529580960                       # Energy for precharge background per rank (pJ) (Joule)
system.mem_ctrl.dram.rank1.actPowerDownEnergy            0                       # Energy for active power-down per rank (pJ) (Joule)
system.mem_ctrl.dram.rank1.prePowerDownEnergy            0                       # Energy for precharge power-down per rank (pJ) (Joule)
system.mem_ctrl.dram.rank1.selfRefreshEnergy            0                       # Energy for self refresh per rank (pJ) (Joule)
system.mem_ctrl.dram.rank1.totalEnergy   335702882055                       # Total energy per rank (pJ) (Joule)
system.mem_ctrl.dram.rank1.averagePower    528.227177                       # Core power per rank (mW) (Watt)
system.mem_ctrl.dram.rank1.totalIdleTime            0                       # Total Idle time Per DRAM Rank (Tick)
system.mem_ctrl.dram.rank1.pwrStateTime::IDLE 118848199089                       # Time in different power states (Tick)
system.mem_ctrl.dram.rank1.pwrStateTime::REF  21221460000                       # Time in different power states (Tick)
system.mem_ctrl.dram.rank1.pwrStateTime::SREF            0                       # Time in different power states (Tick)
system.mem_ctrl.dram.rank1.pwrStateTime::PRE_PDN            0                       # Time in different power states (Tick)
system.mem_ctrl.dram.rank1.pwrStateTime::ACT 495457812327                       # Time in different power states (Tick)
system.mem_ctrl.dram.rank1.pwrStateTime::ACT_PDN            0                       # Time in different power states (Tick)
system.mem_ctrl.power_state.pwrStateResidencyTicks::UNDEFINED 635527471416                       # Cumulative time (in ticks) in various power states (Tick)
system.membus.transDist::ReadReq              3254717                       # Transaction distribution (Count)
system.membus.transDist::ReadResp             3254718                       # Transaction distribution (Count)
system.membus.transDist::WriteReq              355956                       # Transaction distribution (Count)
system.membus.transDist::WriteResp             355956                       # Transaction distribution (Count)
system.membus.transDist::LockedRMWReadReq          205                       # Transaction distribution (Count)
system.membus.transDist::LockedRMWReadResp          205                       # Transaction distribution (Count)
system.membus.transDist::LockedRMWWriteReq          205                       # Transaction distribution (Count)
system.membus.transDist::LockedRMWWriteResp          205                       # Transaction distribution (Count)
system.membus.pktCount_system.cpu.icache_port::system.mem_ctrl.port      5105373                       # Packet count per connected requestor and responder (Count)
system.membus.pktCount_system.cpu.icache_port::total      5105373                       # Packet count per connected requestor and responder (Count)
system.membus.pktCount_system.cpu.dcache_port::system.mem_ctrl.port      2116794                       # Packet count per connected requestor and responder (Count)
system.membus.pktCount_system.cpu.dcache_port::total      2116794                       # Packet count per connected requestor and responder (Count)
system.membus.pktCount::total                 7222167                       # Packet count per connected requestor and responder (Count)
system.membus.pktSize_system.cpu.icache_port::system.mem_ctrl.port     20421496                       # Cumulative packet size per connected requestor and responder (Byte)
system.membus.pktSize_system.cpu.icache_port::total     20421496                       # Cumulative packet size per connected requestor and responder (Byte)
system.membus.pktSize_system.cpu.dcache_port::system.mem_ctrl.port      7955883                       # Cumulative packet size per connected requestor and responder (Byte)
system.membus.pktSize_system.cpu.dcache_port::total      7955883                       # Cumulative packet size per connected requestor and responder (Byte)
system.membus.pktSize::total                 28377379                       # Cumulative packet size per connected requestor and responder (Byte)
system.membus.snoops                                0                       # Total snoops (Count)
system.membus.snoopTraffic                          0                       # Total snoop traffic (Byte)
system.membus.snoopFanout::samples            3611083                       # Request fanout histogram (Count)
system.membus.snoopFanout::mean                     0                       # Request fanout histogram (Count)
system.membus.snoopFanout::stdev                    0                       # Request fanout histogram (Count)
system.membus.snoopFanout::underflows               0      0.00%      0.00% # Request fanout histogram (Count)
system.membus.snoopFanout::0                  3611083    100.00%    100.00% # Request fanout histogram (Count)
system.membus.snoopFanout::1                        0      0.00%    100.00% # Request fanout histogram (Count)
system.membus.snoopFanout::overflows                0      0.00%    100.00% # Request fanout histogram (Count)
system.membus.snoopFanout::min_value                0                       # Request fanout histogram (Count)
system.membus.snoopFanout::max_value                0                       # Request fanout histogram (Count)
system.membus.snoopFanout::total              3611083                       # Request fanout histogram (Count)
system.membus.power_state.pwrStateResidencyTicks::UNDEFINED 635527471416                       # Cumulative time (in ticks) in various power states (Tick)
system.membus.reqLayer2.occupancy         52895264252                       # Layer occupancy (ticks) (Tick)
system.membus.reqLayer2.utilization               0.1                       # Layer utilization (Ratio)
system.membus.respLayer1.occupancy        71507308912                       # Layer occupancy (ticks) (Tick)
system.membus.respLayer1.utilization              0.1                       # Layer utilization (Ratio)
system.membus.respLayer2.occupancy        25754985662                       # Layer occupancy (ticks) (Tick)
system.membus.respLayer2.utilization              0.0                       # Layer utilization (Ratio)
system.membus.snoop_filter.totRequests              0                       # Total number of requests made to the snoop filter. (Count)
system.membus.snoop_filter.hitSingleRequests            0                       # Number of requests hitting in the snoop filter with a single holder of the requested data. (Count)
system.membus.snoop_filter.hitMultiRequests            0                       # Number of requests hitting in the snoop filter with multiple (>1) holders of the requested data. (Count)
system.membus.snoop_filter.totSnoops                0                       # Total number of snoops made to the snoop filter. (Count)
system.membus.snoop_filter.hitSingleSnoops            0                       # Number of snoops hitting in the snoop filter with a single holder of the requested data. (Count)
system.membus.snoop_filter.hitMultiSnoops            0                       # Number of snoops hitting in the snoop filter with multiple (>1) holders of the requested data. (Count)
system.workload.inst.arm                            0                       # number of arm instructions executed (Count)
system.workload.inst.quiesce                        0                       # number of quiesce instructions executed (Count)

---------- End Simulation Statistics   ----------
