
---------- Begin Simulation Statistics ----------
simSeconds                                   1.057897                       # Number of seconds simulated (Second)
simTicks                                 1057896565258                       # Number of ticks simulated (Tick)
finalTick                                1057896565258                       # Number of ticks from beginning of simulation (restored from checkpoints and never reset) (Tick)
simFreq                                  1000000000000                       # The number of ticks per simulated second ((Tick/Second))
hostSeconds                                    619.63                       # Real time elapsed on the host (Second)
hostTickRate                               1707297257                       # The number of ticks simulated per host second (ticks/s) ((Tick/Second))
hostMemory                                    8690960                       # Number of bytes of host memory used (Byte)
simInsts                                    142609581                       # Number of instructions simulated (Count)
simOps                                      256389422                       # Number of ops (including micro ops) simulated (Count)
hostInstRate                                   230152                       # Simulator instruction rate (inst/s) ((Count/Second))
hostOpRate                                     413777                       # Simulator op (including micro ops) rate (op/s) ((Count/Second))
system.clk_domain.clock                         13333                       # Clock period in ticks (Tick)
system.clk_domain.voltage_domain.voltage            1                       # Voltage in Volts (Volt)
system.cpu.numCycles                         79344227                       # Number of cpu cycles simulated (Cycle)
system.cpu.cpi                               0.556374                       # CPI: cycles per instruction (core level) ((Cycle/Count))
system.cpu.ipc                               1.797353                       # IPC: instructions per cycle (core level) ((Count/Cycle))
system.cpu.numWorkItemsStarted                      0                       # Number of work items this cpu started (Count)
system.cpu.numWorkItemsCompleted                    0                       # Number of work items this cpu completed (Count)
system.cpu.instsAdded                       275734925                       # Number of instructions added to the IQ (excludes non-spec) (Count)
system.cpu.nonSpecInstsAdded                     5063                       # Number of non-speculative instructions added to the IQ (Count)
system.cpu.instsIssued                      271229165                       # Number of instructions issued (Count)
system.cpu.squashedInstsIssued                  61551                       # Number of squashed instructions issued (Count)
system.cpu.squashedInstsExamined             19350555                       # Number of squashed instructions iterated over during squash; mainly for profiling (Count)
system.cpu.squashedOperandsExamined          23148510                       # Number of squashed operands that are examined and possibly removed from graph (Count)
system.cpu.squashedNonSpecRemoved                1260                       # Number of squashed non-spec instructions that were removed (Count)
system.cpu.numIssuedDist::samples            79223167                       # Number of insts issued each cycle (Count)
system.cpu.numIssuedDist::mean               3.423609                       # Number of insts issued each cycle (Count)
system.cpu.numIssuedDist::stdev              2.665597                       # Number of insts issued each cycle (Count)
system.cpu.numIssuedDist::underflows                0      0.00%      0.00% # Number of insts issued each cycle (Count)
system.cpu.numIssuedDist::0                  16610665     20.97%     20.97% # Number of insts issued each cycle (Count)
system.cpu.numIssuedDist::1                   8840203     11.16%     32.13% # Number of insts issued each cycle (Count)
system.cpu.numIssuedDist::2                   7604015      9.60%     41.72% # Number of insts issued each cycle (Count)
system.cpu.numIssuedDist::3                   8615208     10.87%     52.60% # Number of insts issued each cycle (Count)
system.cpu.numIssuedDist::4                   8030628     10.14%     62.74% # Number of insts issued each cycle (Count)
system.cpu.numIssuedDist::5                   7506140      9.47%     72.21% # Number of insts issued each cycle (Count)
system.cpu.numIssuedDist::6                   8120367     10.25%     82.46% # Number of insts issued each cycle (Count)
system.cpu.numIssuedDist::7                   8207634     10.36%     92.82% # Number of insts issued each cycle (Count)
system.cpu.numIssuedDist::8                   5688307      7.18%    100.00% # Number of insts issued each cycle (Count)
system.cpu.numIssuedDist::overflows                 0      0.00%    100.00% # Number of insts issued each cycle (Count)
system.cpu.numIssuedDist::min_value                 0                       # Number of insts issued each cycle (Count)
system.cpu.numIssuedDist::max_value                 8                       # Number of insts issued each cycle (Count)
system.cpu.numIssuedDist::total              79223167                       # Number of insts issued each cycle (Count)
system.cpu.statFuBusy::No_OpClass                   0      0.00%      0.00% # attempts to use FU when none available (Count)
system.cpu.statFuBusy::IntAlu                 5967774     92.35%     92.35% # attempts to use FU when none available (Count)
system.cpu.statFuBusy::IntMult                      0      0.00%     92.35% # attempts to use FU when none available (Count)
system.cpu.statFuBusy::IntDiv                       0      0.00%     92.35% # attempts to use FU when none available (Count)
system.cpu.statFuBusy::FloatAdd                     0      0.00%     92.35% # attempts to use FU when none available (Count)
system.cpu.statFuBusy::FloatCmp                     0      0.00%     92.35% # attempts to use FU when none available (Count)
system.cpu.statFuBusy::FloatCvt                     0      0.00%     92.35% # attempts to use FU when none available (Count)
system.cpu.statFuBusy::FloatMult                    0      0.00%     92.35% # attempts to use FU when none available (Count)
system.cpu.statFuBusy::FloatMultAcc                 0      0.00%     92.35% # attempts to use FU when none available (Count)
system.cpu.statFuBusy::FloatDiv                     0      0.00%     92.35% # attempts to use FU when none available (Count)
system.cpu.statFuBusy::FloatMisc                    0      0.00%     92.35% # attempts to use FU when none available (Count)
system.cpu.statFuBusy::FloatSqrt                    0      0.00%     92.35% # attempts to use FU when none available (Count)
system.cpu.statFuBusy::SimdAdd                      2      0.00%     92.35% # attempts to use FU when none available (Count)
system.cpu.statFuBusy::SimdAddAcc                   0      0.00%     92.35% # attempts to use FU when none available (Count)
system.cpu.statFuBusy::SimdAlu                    133      0.00%     92.35% # attempts to use FU when none available (Count)
system.cpu.statFuBusy::SimdCmp                      2      0.00%     92.35% # attempts to use FU when none available (Count)
system.cpu.statFuBusy::SimdCvt                    182      0.00%     92.35% # attempts to use FU when none available (Count)
system.cpu.statFuBusy::SimdMisc                    32      0.00%     92.35% # attempts to use FU when none available (Count)
system.cpu.statFuBusy::SimdMult                     0      0.00%     92.35% # attempts to use FU when none available (Count)
system.cpu.statFuBusy::SimdMultAcc                  0      0.00%     92.35% # attempts to use FU when none available (Count)
system.cpu.statFuBusy::SimdMatMultAcc               0      0.00%     92.35% # attempts to use FU when none available (Count)
system.cpu.statFuBusy::SimdShift                   28      0.00%     92.36% # attempts to use FU when none available (Count)
system.cpu.statFuBusy::SimdShiftAcc                 0      0.00%     92.36% # attempts to use FU when none available (Count)
system.cpu.statFuBusy::SimdDiv                      0      0.00%     92.36% # attempts to use FU when none available (Count)
system.cpu.statFuBusy::SimdSqrt                     0      0.00%     92.36% # attempts to use FU when none available (Count)
system.cpu.statFuBusy::SimdFloatAdd                 0      0.00%     92.36% # attempts to use FU when none available (Count)
system.cpu.statFuBusy::SimdFloatAlu                 0      0.00%     92.36% # attempts to use FU when none available (Count)
system.cpu.statFuBusy::SimdFloatCmp                 0      0.00%     92.36% # attempts to use FU when none available (Count)
system.cpu.statFuBusy::SimdFloatCvt                 0      0.00%     92.36% # attempts to use FU when none available (Count)
system.cpu.statFuBusy::SimdFloatDiv                 0      0.00%     92.36% # attempts to use FU when none available (Count)
system.cpu.statFuBusy::SimdFloatMisc                0      0.00%     92.36% # attempts to use FU when none available (Count)
system.cpu.statFuBusy::SimdFloatMult                0      0.00%     92.36% # attempts to use FU when none available (Count)
system.cpu.statFuBusy::SimdFloatMultAcc             0      0.00%     92.36% # attempts to use FU when none available (Count)
system.cpu.statFuBusy::SimdFloatMatMultAcc            0      0.00%     92.36% # attempts to use FU when none available (Count)
system.cpu.statFuBusy::SimdFloatSqrt                0      0.00%     92.36% # attempts to use FU when none available (Count)
system.cpu.statFuBusy::SimdReduceAdd                0      0.00%     92.36% # attempts to use FU when none available (Count)
system.cpu.statFuBusy::SimdReduceAlu                0      0.00%     92.36% # attempts to use FU when none available (Count)
system.cpu.statFuBusy::SimdReduceCmp                0      0.00%     92.36% # attempts to use FU when none available (Count)
system.cpu.statFuBusy::SimdFloatReduceAdd            0      0.00%     92.36% # attempts to use FU when none available (Count)
system.cpu.statFuBusy::SimdFloatReduceCmp            0      0.00%     92.36% # attempts to use FU when none available (Count)
system.cpu.statFuBusy::SimdAes                      0      0.00%     92.36% # attempts to use FU when none available (Count)
system.cpu.statFuBusy::SimdAesMix                   0      0.00%     92.36% # attempts to use FU when none available (Count)
system.cpu.statFuBusy::SimdSha1Hash                 0      0.00%     92.36% # attempts to use FU when none available (Count)
system.cpu.statFuBusy::SimdSha1Hash2                0      0.00%     92.36% # attempts to use FU when none available (Count)
system.cpu.statFuBusy::SimdSha256Hash               0      0.00%     92.36% # attempts to use FU when none available (Count)
system.cpu.statFuBusy::SimdSha256Hash2              0      0.00%     92.36% # attempts to use FU when none available (Count)
system.cpu.statFuBusy::SimdShaSigma2                0      0.00%     92.36% # attempts to use FU when none available (Count)
system.cpu.statFuBusy::SimdShaSigma3                0      0.00%     92.36% # attempts to use FU when none available (Count)
system.cpu.statFuBusy::SimdPredAlu                  0      0.00%     92.36% # attempts to use FU when none available (Count)
system.cpu.statFuBusy::Matrix                       0      0.00%     92.36% # attempts to use FU when none available (Count)
system.cpu.statFuBusy::MatrixMov                    0      0.00%     92.36% # attempts to use FU when none available (Count)
system.cpu.statFuBusy::MatrixOP                     0      0.00%     92.36% # attempts to use FU when none available (Count)
system.cpu.statFuBusy::MemRead                 433448      6.71%     99.06% # attempts to use FU when none available (Count)
system.cpu.statFuBusy::MemWrite                 30305      0.47%     99.53% # attempts to use FU when none available (Count)
system.cpu.statFuBusy::FloatMemRead              2026      0.03%     99.56% # attempts to use FU when none available (Count)
system.cpu.statFuBusy::FloatMemWrite            28250      0.44%    100.00% # attempts to use FU when none available (Count)
system.cpu.statFuBusy::IprAccess                    0      0.00%    100.00% # attempts to use FU when none available (Count)
system.cpu.statFuBusy::InstPrefetch                 0      0.00%    100.00% # attempts to use FU when none available (Count)
system.cpu.statFuBusy::SimdUnitStrideLoad            0      0.00%    100.00% # attempts to use FU when none available (Count)
system.cpu.statFuBusy::SimdUnitStrideStore            0      0.00%    100.00% # attempts to use FU when none available (Count)
system.cpu.statFuBusy::SimdUnitStrideMaskLoad            0      0.00%    100.00% # attempts to use FU when none available (Count)
system.cpu.statFuBusy::SimdUnitStrideMaskStore            0      0.00%    100.00% # attempts to use FU when none available (Count)
system.cpu.statFuBusy::SimdStridedLoad              0      0.00%    100.00% # attempts to use FU when none available (Count)
system.cpu.statFuBusy::SimdStridedStore             0      0.00%    100.00% # attempts to use FU when none available (Count)
system.cpu.statFuBusy::SimdIndexedLoad              0      0.00%    100.00% # attempts to use FU when none available (Count)
system.cpu.statFuBusy::SimdIndexedStore             0      0.00%    100.00% # attempts to use FU when none available (Count)
system.cpu.statFuBusy::SimdWholeRegisterLoad            0      0.00%    100.00% # attempts to use FU when none available (Count)
system.cpu.statFuBusy::SimdWholeRegisterStore            0      0.00%    100.00% # attempts to use FU when none available (Count)
system.cpu.statFuBusy::SimdUnitStrideFaultOnlyFirstLoad            0      0.00%    100.00% # attempts to use FU when none available (Count)
system.cpu.statFuBusy::SimdUnitStrideSegmentedLoad            0      0.00%    100.00% # attempts to use FU when none available (Count)
system.cpu.statFuBusy::SimdUnitStrideSegmentedStore            0      0.00%    100.00% # attempts to use FU when none available (Count)
system.cpu.statFuBusy::SimdExt                      0      0.00%    100.00% # attempts to use FU when none available (Count)
system.cpu.statFuBusy::SimdFloatExt                 0      0.00%    100.00% # attempts to use FU when none available (Count)
system.cpu.statFuBusy::SimdConfig                   0      0.00%    100.00% # attempts to use FU when none available (Count)
system.cpu.statIssuedInstType_0::No_OpClass      2455412      0.91%      0.91% # Number of instructions issued per FU type, per thread (Count)
system.cpu.statIssuedInstType_0::IntAlu     198299967     73.11%     74.02% # Number of instructions issued per FU type, per thread (Count)
system.cpu.statIssuedInstType_0::IntMult          367      0.00%     74.02% # Number of instructions issued per FU type, per thread (Count)
system.cpu.statIssuedInstType_0::IntDiv       8309643      3.06%     77.08% # Number of instructions issued per FU type, per thread (Count)
system.cpu.statIssuedInstType_0::FloatAdd       855715      0.32%     77.40% # Number of instructions issued per FU type, per thread (Count)
system.cpu.statIssuedInstType_0::FloatCmp            0      0.00%     77.40% # Number of instructions issued per FU type, per thread (Count)
system.cpu.statIssuedInstType_0::FloatCvt         1309      0.00%     77.40% # Number of instructions issued per FU type, per thread (Count)
system.cpu.statIssuedInstType_0::FloatMult            0      0.00%     77.40% # Number of instructions issued per FU type, per thread (Count)
system.cpu.statIssuedInstType_0::FloatMultAcc            0      0.00%     77.40% # Number of instructions issued per FU type, per thread (Count)
system.cpu.statIssuedInstType_0::FloatDiv            0      0.00%     77.40% # Number of instructions issued per FU type, per thread (Count)
system.cpu.statIssuedInstType_0::FloatMisc            0      0.00%     77.40% # Number of instructions issued per FU type, per thread (Count)
system.cpu.statIssuedInstType_0::FloatSqrt            0      0.00%     77.40% # Number of instructions issued per FU type, per thread (Count)
system.cpu.statIssuedInstType_0::SimdAdd         7261      0.00%     77.40% # Number of instructions issued per FU type, per thread (Count)
system.cpu.statIssuedInstType_0::SimdAddAcc            0      0.00%     77.40% # Number of instructions issued per FU type, per thread (Count)
system.cpu.statIssuedInstType_0::SimdAlu       945240      0.35%     77.75% # Number of instructions issued per FU type, per thread (Count)
system.cpu.statIssuedInstType_0::SimdCmp           52      0.00%     77.75% # Number of instructions issued per FU type, per thread (Count)
system.cpu.statIssuedInstType_0::SimdCvt        16046      0.01%     77.75% # Number of instructions issued per FU type, per thread (Count)
system.cpu.statIssuedInstType_0::SimdMisc      1074067      0.40%     78.15% # Number of instructions issued per FU type, per thread (Count)
system.cpu.statIssuedInstType_0::SimdMult            0      0.00%     78.15% # Number of instructions issued per FU type, per thread (Count)
system.cpu.statIssuedInstType_0::SimdMultAcc            0      0.00%     78.15% # Number of instructions issued per FU type, per thread (Count)
system.cpu.statIssuedInstType_0::SimdMatMultAcc            0      0.00%     78.15% # Number of instructions issued per FU type, per thread (Count)
system.cpu.statIssuedInstType_0::SimdShift         4035      0.00%     78.15% # Number of instructions issued per FU type, per thread (Count)
system.cpu.statIssuedInstType_0::SimdShiftAcc            0      0.00%     78.15% # Number of instructions issued per FU type, per thread (Count)
system.cpu.statIssuedInstType_0::SimdDiv            0      0.00%     78.15% # Number of instructions issued per FU type, per thread (Count)
system.cpu.statIssuedInstType_0::SimdSqrt            0      0.00%     78.15% # Number of instructions issued per FU type, per thread (Count)
system.cpu.statIssuedInstType_0::SimdFloatAdd          157      0.00%     78.15% # Number of instructions issued per FU type, per thread (Count)
system.cpu.statIssuedInstType_0::SimdFloatAlu            0      0.00%     78.15% # Number of instructions issued per FU type, per thread (Count)
system.cpu.statIssuedInstType_0::SimdFloatCmp            0      0.00%     78.15% # Number of instructions issued per FU type, per thread (Count)
system.cpu.statIssuedInstType_0::SimdFloatCvt          641      0.00%     78.15% # Number of instructions issued per FU type, per thread (Count)
system.cpu.statIssuedInstType_0::SimdFloatDiv          103      0.00%     78.15% # Number of instructions issued per FU type, per thread (Count)
system.cpu.statIssuedInstType_0::SimdFloatMisc            0      0.00%     78.15% # Number of instructions issued per FU type, per thread (Count)
system.cpu.statIssuedInstType_0::SimdFloatMult           54      0.00%     78.15% # Number of instructions issued per FU type, per thread (Count)
system.cpu.statIssuedInstType_0::SimdFloatMultAcc            0      0.00%     78.15% # Number of instructions issued per FU type, per thread (Count)
system.cpu.statIssuedInstType_0::SimdFloatMatMultAcc            0      0.00%     78.15% # Number of instructions issued per FU type, per thread (Count)
system.cpu.statIssuedInstType_0::SimdFloatSqrt            0      0.00%     78.15% # Number of instructions issued per FU type, per thread (Count)
system.cpu.statIssuedInstType_0::SimdReduceAdd            0      0.00%     78.15% # Number of instructions issued per FU type, per thread (Count)
system.cpu.statIssuedInstType_0::SimdReduceAlu            0      0.00%     78.15% # Number of instructions issued per FU type, per thread (Count)
system.cpu.statIssuedInstType_0::SimdReduceCmp            0      0.00%     78.15% # Number of instructions issued per FU type, per thread (Count)
system.cpu.statIssuedInstType_0::SimdFloatReduceAdd            0      0.00%     78.15% # Number of instructions issued per FU type, per thread (Count)
system.cpu.statIssuedInstType_0::SimdFloatReduceCmp            0      0.00%     78.15% # Number of instructions issued per FU type, per thread (Count)
system.cpu.statIssuedInstType_0::SimdAes            0      0.00%     78.15% # Number of instructions issued per FU type, per thread (Count)
system.cpu.statIssuedInstType_0::SimdAesMix            0      0.00%     78.15% # Number of instructions issued per FU type, per thread (Count)
system.cpu.statIssuedInstType_0::SimdSha1Hash            0      0.00%     78.15% # Number of instructions issued per FU type, per thread (Count)
system.cpu.statIssuedInstType_0::SimdSha1Hash2            0      0.00%     78.15% # Number of instructions issued per FU type, per thread (Count)
system.cpu.statIssuedInstType_0::SimdSha256Hash            0      0.00%     78.15% # Number of instructions issued per FU type, per thread (Count)
system.cpu.statIssuedInstType_0::SimdSha256Hash2            0      0.00%     78.15% # Number of instructions issued per FU type, per thread (Count)
system.cpu.statIssuedInstType_0::SimdShaSigma2            0      0.00%     78.15% # Number of instructions issued per FU type, per thread (Count)
system.cpu.statIssuedInstType_0::SimdShaSigma3            0      0.00%     78.15% # Number of instructions issued per FU type, per thread (Count)
system.cpu.statIssuedInstType_0::SimdPredAlu            0      0.00%     78.15% # Number of instructions issued per FU type, per thread (Count)
system.cpu.statIssuedInstType_0::Matrix             0      0.00%     78.15% # Number of instructions issued per FU type, per thread (Count)
system.cpu.statIssuedInstType_0::MatrixMov            0      0.00%     78.15% # Number of instructions issued per FU type, per thread (Count)
system.cpu.statIssuedInstType_0::MatrixOP            0      0.00%     78.15% # Number of instructions issued per FU type, per thread (Count)
system.cpu.statIssuedInstType_0::MemRead     35699811     13.16%     91.31% # Number of instructions issued per FU type, per thread (Count)
system.cpu.statIssuedInstType_0::MemWrite     18670346      6.88%     98.20% # Number of instructions issued per FU type, per thread (Count)
system.cpu.statIssuedInstType_0::FloatMemRead       696538      0.26%     98.45% # Number of instructions issued per FU type, per thread (Count)
system.cpu.statIssuedInstType_0::FloatMemWrite      4192401      1.55%    100.00% # Number of instructions issued per FU type, per thread (Count)
system.cpu.statIssuedInstType_0::IprAccess            0      0.00%    100.00% # Number of instructions issued per FU type, per thread (Count)
system.cpu.statIssuedInstType_0::InstPrefetch            0      0.00%    100.00% # Number of instructions issued per FU type, per thread (Count)
system.cpu.statIssuedInstType_0::SimdUnitStrideLoad            0      0.00%    100.00% # Number of instructions issued per FU type, per thread (Count)
system.cpu.statIssuedInstType_0::SimdUnitStrideStore            0      0.00%    100.00% # Number of instructions issued per FU type, per thread (Count)
system.cpu.statIssuedInstType_0::SimdUnitStrideMaskLoad            0      0.00%    100.00% # Number of instructions issued per FU type, per thread (Count)
system.cpu.statIssuedInstType_0::SimdUnitStrideMaskStore            0      0.00%    100.00% # Number of instructions issued per FU type, per thread (Count)
system.cpu.statIssuedInstType_0::SimdStridedLoad            0      0.00%    100.00% # Number of instructions issued per FU type, per thread (Count)
system.cpu.statIssuedInstType_0::SimdStridedStore            0      0.00%    100.00% # Number of instructions issued per FU type, per thread (Count)
system.cpu.statIssuedInstType_0::SimdIndexedLoad            0      0.00%    100.00% # Number of instructions issued per FU type, per thread (Count)
system.cpu.statIssuedInstType_0::SimdIndexedStore            0      0.00%    100.00% # Number of instructions issued per FU type, per thread (Count)
system.cpu.statIssuedInstType_0::SimdWholeRegisterLoad            0      0.00%    100.00% # Number of instructions issued per FU type, per thread (Count)
system.cpu.statIssuedInstType_0::SimdWholeRegisterStore            0      0.00%    100.00% # Number of instructions issued per FU type, per thread (Count)
system.cpu.statIssuedInstType_0::SimdUnitStrideFaultOnlyFirstLoad            0      0.00%    100.00% # Number of instructions issued per FU type, per thread (Count)
system.cpu.statIssuedInstType_0::SimdUnitStrideSegmentedLoad            0      0.00%    100.00% # Number of instructions issued per FU type, per thread (Count)
system.cpu.statIssuedInstType_0::SimdUnitStrideSegmentedStore            0      0.00%    100.00% # Number of instructions issued per FU type, per thread (Count)
system.cpu.statIssuedInstType_0::SimdExt            0      0.00%    100.00% # Number of instructions issued per FU type, per thread (Count)
system.cpu.statIssuedInstType_0::SimdFloatExt            0      0.00%    100.00% # Number of instructions issued per FU type, per thread (Count)
system.cpu.statIssuedInstType_0::SimdConfig            0      0.00%    100.00% # Number of instructions issued per FU type, per thread (Count)
system.cpu.statIssuedInstType_0::total      271229165                       # Number of instructions issued per FU type, per thread (Count)
system.cpu.issueRate                         3.418386                       # Inst issue rate ((Count/Cycle))
system.cpu.fuBusy                             6462182                       # FU busy when requested (Count)
system.cpu.fuBusyRate                        0.023826                       # FU busy rate (busy events/executed inst) ((Count/Count))
system.cpu.intInstQueueReads                610025897                       # Number of integer instruction queue reads (Count)
system.cpu.intInstQueueWrites               285955827                       # Number of integer instruction queue writes (Count)
system.cpu.intInstQueueWakeupAccesses       261579134                       # Number of integer instruction queue wakeup accesses (Count)
system.cpu.fpInstQueueReads                  18179333                       # Number of floating instruction queue reads (Count)
system.cpu.fpInstQueueWrites                  9136290                       # Number of floating instruction queue writes (Count)
system.cpu.fpInstQueueWakeupAccesses          9060129                       # Number of floating instruction queue wakeup accesses (Count)
system.cpu.vecInstQueueReads                        0                       # Number of vector instruction queue reads (Count)
system.cpu.vecInstQueueWrites                       0                       # Number of vector instruction queue writes (Count)
system.cpu.vecInstQueueWakeupAccesses               0                       # Number of vector instruction queue wakeup accesses (Count)
system.cpu.intAluAccesses                   266124841                       # Number of integer alu accesses (Count)
system.cpu.fpAluAccesses                      9111094                       # Number of floating point alu accesses (Count)
system.cpu.vecAluAccesses                           0                       # Number of vector alu accesses (Count)
system.cpu.numSquashedInsts                    317195                       # Number of squashed instructions skipped in execute (Count)
system.cpu.numSwp                                   0                       # Number of swp insts executed (Count)
system.cpu.timesIdled                           29859                       # Number of times that the entire CPU went into an idle state and unscheduled itself (Count)
system.cpu.idleCycles                          121060                       # Total number of cycles that the CPU has spent unscheduled due to idling (Cycle)
system.cpu.MemDepUnit__0.insertedLoads       37041157                       # Number of loads inserted to the mem dependence unit. (Count)
system.cpu.MemDepUnit__0.insertedStores      22965285                       # Number of stores inserted to the mem dependence unit. (Count)
system.cpu.MemDepUnit__0.conflictingLoads       666770                       # Number of conflicting loads. (Count)
system.cpu.MemDepUnit__0.conflictingStores       519853                       # Number of conflicting stores. (Count)
system.cpu.MemDepUnit__1.insertedLoads              0                       # Number of loads inserted to the mem dependence unit. (Count)
system.cpu.MemDepUnit__1.insertedStores             0                       # Number of stores inserted to the mem dependence unit. (Count)
system.cpu.MemDepUnit__1.conflictingLoads            0                       # Number of conflicting loads. (Count)
system.cpu.MemDepUnit__1.conflictingStores            0                       # Number of conflicting stores. (Count)
system.cpu.MemDepUnit__2.insertedLoads              0                       # Number of loads inserted to the mem dependence unit. (Count)
system.cpu.MemDepUnit__2.insertedStores             0                       # Number of stores inserted to the mem dependence unit. (Count)
system.cpu.MemDepUnit__2.conflictingLoads            0                       # Number of conflicting loads. (Count)
system.cpu.MemDepUnit__2.conflictingStores            0                       # Number of conflicting stores. (Count)
system.cpu.MemDepUnit__3.insertedLoads              0                       # Number of loads inserted to the mem dependence unit. (Count)
system.cpu.MemDepUnit__3.insertedStores             0                       # Number of stores inserted to the mem dependence unit. (Count)
system.cpu.MemDepUnit__3.conflictingLoads            0                       # Number of conflicting loads. (Count)
system.cpu.MemDepUnit__3.conflictingStores            0                       # Number of conflicting stores. (Count)
system.cpu.branchPred.lookups_0::NoBranch         2308      0.01%      0.01% # Number of BP lookups (Count)
system.cpu.branchPred.lookups_0::Return       1565567      5.12%      5.13% # Number of BP lookups (Count)
system.cpu.branchPred.lookups_0::CallDirect      1785231      5.84%     10.97% # Number of BP lookups (Count)
system.cpu.branchPred.lookups_0::CallIndirect         1249      0.00%     10.98% # Number of BP lookups (Count)
system.cpu.branchPred.lookups_0::DirectCond     23315520     76.29%     87.26% # Number of BP lookups (Count)
system.cpu.branchPred.lookups_0::DirectUncond      2451367      8.02%     95.28% # Number of BP lookups (Count)
system.cpu.branchPred.lookups_0::IndirectCond            0      0.00%     95.28% # Number of BP lookups (Count)
system.cpu.branchPred.lookups_0::IndirectUncond      1442194      4.72%    100.00% # Number of BP lookups (Count)
system.cpu.branchPred.lookups_0::total       30563436                       # Number of BP lookups (Count)
system.cpu.branchPred.squashes_0::NoBranch         1980      0.07%      0.07% # Number of branches that got squashed (completely removed) as an earlier branch was mispredicted. (Count)
system.cpu.branchPred.squashes_0::Return        10822      0.37%      0.43% # Number of branches that got squashed (completely removed) as an earlier branch was mispredicted. (Count)
system.cpu.branchPred.squashes_0::CallDirect       231085      7.82%      8.25% # Number of branches that got squashed (completely removed) as an earlier branch was mispredicted. (Count)
system.cpu.branchPred.squashes_0::CallIndirect          645      0.02%      8.27% # Number of branches that got squashed (completely removed) as an earlier branch was mispredicted. (Count)
system.cpu.branchPred.squashes_0::DirectCond      2137185     72.30%     80.57% # Number of branches that got squashed (completely removed) as an earlier branch was mispredicted. (Count)
system.cpu.branchPred.squashes_0::DirectUncond       417723     14.13%     94.70% # Number of branches that got squashed (completely removed) as an earlier branch was mispredicted. (Count)
system.cpu.branchPred.squashes_0::IndirectCond            0      0.00%     94.70% # Number of branches that got squashed (completely removed) as an earlier branch was mispredicted. (Count)
system.cpu.branchPred.squashes_0::IndirectUncond       156715      5.30%    100.00% # Number of branches that got squashed (completely removed) as an earlier branch was mispredicted. (Count)
system.cpu.branchPred.squashes_0::total       2956155                       # Number of branches that got squashed (completely removed) as an earlier branch was mispredicted. (Count)
system.cpu.branchPred.corrected_0::NoBranch          531      0.27%      0.27% # Number of branches that got corrected but not yet commited. Branches get corrected by decode or after execute. Also a branch misprediction can be detected out-of-order. Therefore, a corrected branch might not end up beeing committed in case an even earlier branch was mispredicted (Count)
system.cpu.branchPred.corrected_0::Return           12      0.01%      0.28% # Number of branches that got corrected but not yet commited. Branches get corrected by decode or after execute. Also a branch misprediction can be detected out-of-order. Therefore, a corrected branch might not end up beeing committed in case an even earlier branch was mispredicted (Count)
system.cpu.branchPred.corrected_0::CallDirect          824      0.42%      0.70% # Number of branches that got corrected but not yet commited. Branches get corrected by decode or after execute. Also a branch misprediction can be detected out-of-order. Therefore, a corrected branch might not end up beeing committed in case an even earlier branch was mispredicted (Count)
system.cpu.branchPred.corrected_0::CallIndirect          239      0.12%      0.83% # Number of branches that got corrected but not yet commited. Branches get corrected by decode or after execute. Also a branch misprediction can be detected out-of-order. Therefore, a corrected branch might not end up beeing committed in case an even earlier branch was mispredicted (Count)
system.cpu.branchPred.corrected_0::DirectCond       190536     98.21%     99.04% # Number of branches that got corrected but not yet commited. Branches get corrected by decode or after execute. Also a branch misprediction can be detected out-of-order. Therefore, a corrected branch might not end up beeing committed in case an even earlier branch was mispredicted (Count)
system.cpu.branchPred.corrected_0::DirectUncond          638      0.33%     99.37% # Number of branches that got corrected but not yet commited. Branches get corrected by decode or after execute. Also a branch misprediction can be detected out-of-order. Therefore, a corrected branch might not end up beeing committed in case an even earlier branch was mispredicted (Count)
system.cpu.branchPred.corrected_0::IndirectCond            0      0.00%     99.37% # Number of branches that got corrected but not yet commited. Branches get corrected by decode or after execute. Also a branch misprediction can be detected out-of-order. Therefore, a corrected branch might not end up beeing committed in case an even earlier branch was mispredicted (Count)
system.cpu.branchPred.corrected_0::IndirectUncond         1226      0.63%    100.00% # Number of branches that got corrected but not yet commited. Branches get corrected by decode or after execute. Also a branch misprediction can be detected out-of-order. Therefore, a corrected branch might not end up beeing committed in case an even earlier branch was mispredicted (Count)
system.cpu.branchPred.corrected_0::total       194006                       # Number of branches that got corrected but not yet commited. Branches get corrected by decode or after execute. Also a branch misprediction can be detected out-of-order. Therefore, a corrected branch might not end up beeing committed in case an even earlier branch was mispredicted (Count)
system.cpu.branchPred.earlyResteers_0::NoBranch            0                       # Number of branches that got redirected after decode. (Count)
system.cpu.branchPred.earlyResteers_0::Return            0                       # Number of branches that got redirected after decode. (Count)
system.cpu.branchPred.earlyResteers_0::CallDirect            0                       # Number of branches that got redirected after decode. (Count)
system.cpu.branchPred.earlyResteers_0::CallIndirect            0                       # Number of branches that got redirected after decode. (Count)
system.cpu.branchPred.earlyResteers_0::DirectCond            0                       # Number of branches that got redirected after decode. (Count)
system.cpu.branchPred.earlyResteers_0::DirectUncond            0                       # Number of branches that got redirected after decode. (Count)
system.cpu.branchPred.earlyResteers_0::IndirectCond            0                       # Number of branches that got redirected after decode. (Count)
system.cpu.branchPred.earlyResteers_0::IndirectUncond            0                       # Number of branches that got redirected after decode. (Count)
system.cpu.branchPred.earlyResteers_0::total            0                       # Number of branches that got redirected after decode. (Count)
system.cpu.branchPred.committed_0::NoBranch          328      0.00%      0.00% # Number of branches finally committed  (Count)
system.cpu.branchPred.committed_0::Return      1554744      5.63%      5.63% # Number of branches finally committed  (Count)
system.cpu.branchPred.committed_0::CallDirect      1554145      5.63%     11.26% # Number of branches finally committed  (Count)
system.cpu.branchPred.committed_0::CallIndirect          604      0.00%     11.26% # Number of branches finally committed  (Count)
system.cpu.branchPred.committed_0::DirectCond     21178335     76.71%     87.98% # Number of branches finally committed  (Count)
system.cpu.branchPred.committed_0::DirectUncond      2033644      7.37%     95.34% # Number of branches finally committed  (Count)
system.cpu.branchPred.committed_0::IndirectCond            0      0.00%     95.34% # Number of branches finally committed  (Count)
system.cpu.branchPred.committed_0::IndirectUncond      1285479      4.66%    100.00% # Number of branches finally committed  (Count)
system.cpu.branchPred.committed_0::total     27607279                       # Number of branches finally committed  (Count)
system.cpu.branchPred.mispredicted_0::NoBranch          328      0.17%      0.17% # Number of committed branches that were mispredicted. (Count)
system.cpu.branchPred.mispredicted_0::Return            0      0.00%      0.17% # Number of committed branches that were mispredicted. (Count)
system.cpu.branchPred.mispredicted_0::CallDirect          534      0.28%      0.45% # Number of committed branches that were mispredicted. (Count)
system.cpu.branchPred.mispredicted_0::CallIndirect          215      0.11%      0.57% # Number of committed branches that were mispredicted. (Count)
system.cpu.branchPred.mispredicted_0::DirectCond       187417     98.63%     99.20% # Number of committed branches that were mispredicted. (Count)
system.cpu.branchPred.mispredicted_0::DirectUncond          359      0.19%     99.39% # Number of committed branches that were mispredicted. (Count)
system.cpu.branchPred.mispredicted_0::IndirectCond            0      0.00%     99.39% # Number of committed branches that were mispredicted. (Count)
system.cpu.branchPred.mispredicted_0::IndirectUncond         1161      0.61%    100.00% # Number of committed branches that were mispredicted. (Count)
system.cpu.branchPred.mispredicted_0::total       190014                       # Number of committed branches that were mispredicted. (Count)
system.cpu.branchPred.targetProvider_0::NoTarget     17033773     55.73%     55.73% # The component providing the target for taken branches (Count)
system.cpu.branchPred.targetProvider_0::BTB     10527437     34.44%     90.18% # The component providing the target for taken branches (Count)
system.cpu.branchPred.targetProvider_0::RAS      1565566      5.12%     95.30% # The component providing the target for taken branches (Count)
system.cpu.branchPred.targetProvider_0::Indirect      1436660      4.70%    100.00% # The component providing the target for taken branches (Count)
system.cpu.branchPred.targetProvider_0::total     30563436                       # The component providing the target for taken branches (Count)
system.cpu.branchPred.targetWrong_0::NoBranch       118086     61.59%     61.59% # Number of branches where the target was incorrect or not available at prediction time. (Count)
system.cpu.branchPred.targetWrong_0::Return        73462     38.32%     99.91% # Number of branches where the target was incorrect or not available at prediction time. (Count)
system.cpu.branchPred.targetWrong_0::CallDirect           12      0.01%     99.91% # Number of branches where the target was incorrect or not available at prediction time. (Count)
system.cpu.branchPred.targetWrong_0::CallIndirect          166      0.09%    100.00% # Number of branches where the target was incorrect or not available at prediction time. (Count)
system.cpu.branchPred.targetWrong_0::DirectCond            0      0.00%    100.00% # Number of branches where the target was incorrect or not available at prediction time. (Count)
system.cpu.branchPred.targetWrong_0::DirectUncond            0      0.00%    100.00% # Number of branches where the target was incorrect or not available at prediction time. (Count)
system.cpu.branchPred.targetWrong_0::IndirectCond            0      0.00%    100.00% # Number of branches where the target was incorrect or not available at prediction time. (Count)
system.cpu.branchPred.targetWrong_0::IndirectUncond            0      0.00%    100.00% # Number of branches where the target was incorrect or not available at prediction time. (Count)
system.cpu.branchPred.targetWrong_0::total       191726                       # Number of branches where the target was incorrect or not available at prediction time. (Count)
system.cpu.branchPred.condPredicted          23317828                       # Number of conditional branches predicted (Count)
system.cpu.branchPred.condPredictedTaken      6295806                       # Number of conditional branches predicted as taken (Count)
system.cpu.branchPred.condIncorrect            194006                       # Number of conditional branches incorrect (Count)
system.cpu.branchPred.predTakenBTBMiss           1849                       # Number of branches predicted taken but missed in BTB (Count)
system.cpu.branchPred.NotTakenMispredicted       119908                       # Number branches predicted 'not taken' but turned out to be taken (Count)
system.cpu.branchPred.TakenMispredicted         74098                       # Number branches predicted taken but are actually not taken (Count)
system.cpu.branchPred.BTBLookups             30563436                       # Number of BTB lookups (Count)
system.cpu.branchPred.BTBUpdates               117900                       # Number of BTB updates (Count)
system.cpu.branchPred.BTBHits                17997551                       # Number of BTB hits (Count)
system.cpu.branchPred.BTBHitRatio            0.588859                       # BTB Hit Ratio (Ratio)
system.cpu.branchPred.BTBMispredicted            2788                       # Number BTB mispredictions. No target found or target wrong (Count)
system.cpu.branchPred.indirectLookups         1443443                       # Number of indirect predictor lookups. (Count)
system.cpu.branchPred.indirectHits            1436660                       # Number of indirect target hits. (Count)
system.cpu.branchPred.indirectMisses             6783                       # Number of indirect misses. (Count)
system.cpu.branchPred.indirectMispredicted            0                       # Number of mispredicted indirect branches. (Count)
system.cpu.branchPred.btb.lookups::NoBranch         2308      0.01%      0.01% # Number of BTB lookups (Count)
system.cpu.branchPred.btb.lookups::Return      1565567      5.12%      5.13% # Number of BTB lookups (Count)
system.cpu.branchPred.btb.lookups::CallDirect      1785231      5.84%     10.97% # Number of BTB lookups (Count)
system.cpu.branchPred.btb.lookups::CallIndirect         1249      0.00%     10.98% # Number of BTB lookups (Count)
system.cpu.branchPred.btb.lookups::DirectCond     23315520     76.29%     87.26% # Number of BTB lookups (Count)
system.cpu.branchPred.btb.lookups::DirectUncond      2451367      8.02%     95.28% # Number of BTB lookups (Count)
system.cpu.branchPred.btb.lookups::IndirectCond            0      0.00%     95.28% # Number of BTB lookups (Count)
system.cpu.branchPred.btb.lookups::IndirectUncond      1442194      4.72%    100.00% # Number of BTB lookups (Count)
system.cpu.branchPred.btb.lookups::total     30563436                       # Number of BTB lookups (Count)
system.cpu.branchPred.btb.misses::NoBranch          415      0.00%      0.00% # Number of BTB misses (Count)
system.cpu.branchPred.btb.misses::Return      1351776     10.76%     10.76% # Number of BTB misses (Count)
system.cpu.branchPred.btb.misses::CallDirect         1231      0.01%     10.77% # Number of BTB misses (Count)
system.cpu.branchPred.btb.misses::CallIndirect         1249      0.01%     10.78% # Number of BTB misses (Count)
system.cpu.branchPred.btb.misses::DirectCond      9768071     77.73%     88.52% # Number of BTB misses (Count)
system.cpu.branchPred.btb.misses::DirectUncond          949      0.01%     88.52% # Number of BTB misses (Count)
system.cpu.branchPred.btb.misses::IndirectCond            0      0.00%     88.52% # Number of BTB misses (Count)
system.cpu.branchPred.btb.misses::IndirectUncond      1442194     11.48%    100.00% # Number of BTB misses (Count)
system.cpu.branchPred.btb.misses::total      12565885                       # Number of BTB misses (Count)
system.cpu.branchPred.btb.updates::NoBranch            0      0.00%      0.00% # Number of BTB updates (Count)
system.cpu.branchPred.btb.updates::Return            0      0.00%      0.00% # Number of BTB updates (Count)
system.cpu.branchPred.btb.updates::CallDirect          824      0.70%      0.70% # Number of BTB updates (Count)
system.cpu.branchPred.btb.updates::CallIndirect            0      0.00%      0.70% # Number of BTB updates (Count)
system.cpu.branchPred.btb.updates::DirectCond       116438     98.76%     99.46% # Number of BTB updates (Count)
system.cpu.branchPred.btb.updates::DirectUncond          638      0.54%    100.00% # Number of BTB updates (Count)
system.cpu.branchPred.btb.updates::IndirectCond            0      0.00%    100.00% # Number of BTB updates (Count)
system.cpu.branchPred.btb.updates::IndirectUncond            0      0.00%    100.00% # Number of BTB updates (Count)
system.cpu.branchPred.btb.updates::total       117900                       # Number of BTB updates (Count)
system.cpu.branchPred.btb.mispredict::NoBranch            0      0.00%      0.00% # Number of BTB mispredictions. No target found or target wrong. (Count)
system.cpu.branchPred.btb.mispredict::Return            0      0.00%      0.00% # Number of BTB mispredictions. No target found or target wrong. (Count)
system.cpu.branchPred.btb.mispredict::CallDirect          824      0.70%      0.70% # Number of BTB mispredictions. No target found or target wrong. (Count)
system.cpu.branchPred.btb.mispredict::CallIndirect            0      0.00%      0.70% # Number of BTB mispredictions. No target found or target wrong. (Count)
system.cpu.branchPred.btb.mispredict::DirectCond       116438     98.76%     99.46% # Number of BTB mispredictions. No target found or target wrong. (Count)
system.cpu.branchPred.btb.mispredict::DirectUncond          638      0.54%    100.00% # Number of BTB mispredictions. No target found or target wrong. (Count)
system.cpu.branchPred.btb.mispredict::IndirectCond            0      0.00%    100.00% # Number of BTB mispredictions. No target found or target wrong. (Count)
system.cpu.branchPred.btb.mispredict::IndirectUncond            0      0.00%    100.00% # Number of BTB mispredictions. No target found or target wrong. (Count)
system.cpu.branchPred.btb.mispredict::total       117900                       # Number of BTB mispredictions. No target found or target wrong. (Count)
system.cpu.branchPred.btb.power_state.pwrStateResidencyTicks::UNDEFINED 1057896565258                       # Cumulative time (in ticks) in various power states (Tick)
system.cpu.branchPred.indirectBranchPred.lookups      1443443                       # Number of lookups (Count)
system.cpu.branchPred.indirectBranchPred.hits      1436660                       # Number of hits of a tag (Count)
system.cpu.branchPred.indirectBranchPred.misses         6783                       # Number of misses (Count)
system.cpu.branchPred.indirectBranchPred.targetRecords         1465                       # Number of targets that where recorded/installed in the cache (Count)
system.cpu.branchPred.indirectBranchPred.indirectRecords      1444908                       # Number of indirect branches/calls recorded in the indirect hist (Count)
system.cpu.branchPred.indirectBranchPred.speculativeOverflows            1                       # Number of times more than the allowed capacity for speculative branches/calls where in flight and destroy the path history (Count)
system.cpu.branchPred.ras.pushes              1797302                       # Number of times a PC was pushed onto the RAS (Count)
system.cpu.branchPred.ras.pops                1797297                       # Number of times a PC was poped from the RAS (Count)
system.cpu.branchPred.ras.squashes             242552                       # Number of times the stack operation was squashed due to wrong speculation. (Count)
system.cpu.branchPred.ras.used                1554744                       # Number of times the RAS is the provider (Count)
system.cpu.branchPred.ras.correct             1554744                       # Number of times the RAS is the provider and the prediction is correct (Count)
system.cpu.branchPred.ras.incorrect                 0                       # Number of times the RAS is the provider and the prediction is wrong (Count)
system.cpu.commit.commitSquashedInsts        19332174                       # The number of squashed insts skipped by commit (Count)
system.cpu.commit.commitNonSpecStalls            3803                       # The number of times commit has been forced to stall to communicate backwards (Count)
system.cpu.commit.branchMispredicts            192560                       # The number of times a branch was mispredicted (Count)
system.cpu.commit.numCommittedDist::samples     76710613                       # Number of insts commited each cycle (Count)
system.cpu.commit.numCommittedDist::mean     3.342294                       # Number of insts commited each cycle (Count)
system.cpu.commit.numCommittedDist::stdev     3.453661                       # Number of insts commited each cycle (Count)
system.cpu.commit.numCommittedDist::underflows            0      0.00%      0.00% # Number of insts commited each cycle (Count)
system.cpu.commit.numCommittedDist::0        28091741     36.62%     36.62% # Number of insts commited each cycle (Count)
system.cpu.commit.numCommittedDist::1         9720185     12.67%     49.29% # Number of insts commited each cycle (Count)
system.cpu.commit.numCommittedDist::2         1637505      2.13%     51.43% # Number of insts commited each cycle (Count)
system.cpu.commit.numCommittedDist::3         7864799     10.25%     61.68% # Number of insts commited each cycle (Count)
system.cpu.commit.numCommittedDist::4         2115130      2.76%     64.44% # Number of insts commited each cycle (Count)
system.cpu.commit.numCommittedDist::5         1031752      1.34%     65.78% # Number of insts commited each cycle (Count)
system.cpu.commit.numCommittedDist::6         1244997      1.62%     67.40% # Number of insts commited each cycle (Count)
system.cpu.commit.numCommittedDist::7         1325464      1.73%     69.13% # Number of insts commited each cycle (Count)
system.cpu.commit.numCommittedDist::8        23679040     30.87%    100.00% # Number of insts commited each cycle (Count)
system.cpu.commit.numCommittedDist::overflows            0      0.00%    100.00% # Number of insts commited each cycle (Count)
system.cpu.commit.numCommittedDist::min_value            0                       # Number of insts commited each cycle (Count)
system.cpu.commit.numCommittedDist::max_value            8                       # Number of insts commited each cycle (Count)
system.cpu.commit.numCommittedDist::total     76710613                       # Number of insts commited each cycle (Count)
system.cpu.commit.amos                              0                       # Number of atomic instructions committed (Count)
system.cpu.commit.membars                        2056                       # Number of memory barriers committed (Count)
system.cpu.commit.functionCalls               1554749                       # Number of function calls committed. (Count)
system.cpu.commit.committedInstType_0::No_OpClass      2220645      0.87%      0.87% # Class of committed instruction (Count)
system.cpu.commit.committedInstType_0::IntAlu    186742607     72.84%     73.70% # Class of committed instruction (Count)
system.cpu.commit.committedInstType_0::IntMult          205      0.00%     73.70% # Class of committed instruction (Count)
system.cpu.commit.committedInstType_0::IntDiv      7609839      2.97%     76.67% # Class of committed instruction (Count)
system.cpu.commit.committedInstType_0::FloatAdd       852162      0.33%     77.00% # Class of committed instruction (Count)
system.cpu.commit.committedInstType_0::FloatCmp            0      0.00%     77.00% # Class of committed instruction (Count)
system.cpu.commit.committedInstType_0::FloatCvt         1264      0.00%     77.00% # Class of committed instruction (Count)
system.cpu.commit.committedInstType_0::FloatMult            0      0.00%     77.00% # Class of committed instruction (Count)
system.cpu.commit.committedInstType_0::FloatMultAcc            0      0.00%     77.00% # Class of committed instruction (Count)
system.cpu.commit.committedInstType_0::FloatDiv            0      0.00%     77.00% # Class of committed instruction (Count)
system.cpu.commit.committedInstType_0::FloatMisc            0      0.00%     77.00% # Class of committed instruction (Count)
system.cpu.commit.committedInstType_0::FloatSqrt            0      0.00%     77.00% # Class of committed instruction (Count)
system.cpu.commit.committedInstType_0::SimdAdd         6580      0.00%     77.01% # Class of committed instruction (Count)
system.cpu.commit.committedInstType_0::SimdAddAcc            0      0.00%     77.01% # Class of committed instruction (Count)
system.cpu.commit.committedInstType_0::SimdAlu       940421      0.37%     77.37% # Class of committed instruction (Count)
system.cpu.commit.committedInstType_0::SimdCmp           36      0.00%     77.37% # Class of committed instruction (Count)
system.cpu.commit.committedInstType_0::SimdCvt        13736      0.01%     77.38% # Class of committed instruction (Count)
system.cpu.commit.committedInstType_0::SimdMisc      1071837      0.42%     77.80% # Class of committed instruction (Count)
system.cpu.commit.committedInstType_0::SimdMult            0      0.00%     77.80% # Class of committed instruction (Count)
system.cpu.commit.committedInstType_0::SimdMultAcc            0      0.00%     77.80% # Class of committed instruction (Count)
system.cpu.commit.committedInstType_0::SimdMatMultAcc            0      0.00%     77.80% # Class of committed instruction (Count)
system.cpu.commit.committedInstType_0::SimdShift         2065      0.00%     77.80% # Class of committed instruction (Count)
system.cpu.commit.committedInstType_0::SimdShiftAcc            0      0.00%     77.80% # Class of committed instruction (Count)
system.cpu.commit.committedInstType_0::SimdDiv            0      0.00%     77.80% # Class of committed instruction (Count)
system.cpu.commit.committedInstType_0::SimdSqrt            0      0.00%     77.80% # Class of committed instruction (Count)
system.cpu.commit.committedInstType_0::SimdFloatAdd          107      0.00%     77.80% # Class of committed instruction (Count)
system.cpu.commit.committedInstType_0::SimdFloatAlu            0      0.00%     77.80% # Class of committed instruction (Count)
system.cpu.commit.committedInstType_0::SimdFloatCmp            0      0.00%     77.80% # Class of committed instruction (Count)
system.cpu.commit.committedInstType_0::SimdFloatCvt          532      0.00%     77.80% # Class of committed instruction (Count)
system.cpu.commit.committedInstType_0::SimdFloatDiv           54      0.00%     77.80% # Class of committed instruction (Count)
system.cpu.commit.committedInstType_0::SimdFloatMisc            0      0.00%     77.80% # Class of committed instruction (Count)
system.cpu.commit.committedInstType_0::SimdFloatMult           53      0.00%     77.80% # Class of committed instruction (Count)
system.cpu.commit.committedInstType_0::SimdFloatMultAcc            0      0.00%     77.80% # Class of committed instruction (Count)
system.cpu.commit.committedInstType_0::SimdFloatMatMultAcc            0      0.00%     77.80% # Class of committed instruction (Count)
system.cpu.commit.committedInstType_0::SimdFloatSqrt            0      0.00%     77.80% # Class of committed instruction (Count)
system.cpu.commit.committedInstType_0::SimdReduceAdd            0      0.00%     77.80% # Class of committed instruction (Count)
system.cpu.commit.committedInstType_0::SimdReduceAlu            0      0.00%     77.80% # Class of committed instruction (Count)
system.cpu.commit.committedInstType_0::SimdReduceCmp            0      0.00%     77.80% # Class of committed instruction (Count)
system.cpu.commit.committedInstType_0::SimdFloatReduceAdd            0      0.00%     77.80% # Class of committed instruction (Count)
system.cpu.commit.committedInstType_0::SimdFloatReduceCmp            0      0.00%     77.80% # Class of committed instruction (Count)
system.cpu.commit.committedInstType_0::SimdAes            0      0.00%     77.80% # Class of committed instruction (Count)
system.cpu.commit.committedInstType_0::SimdAesMix            0      0.00%     77.80% # Class of committed instruction (Count)
system.cpu.commit.committedInstType_0::SimdSha1Hash            0      0.00%     77.80% # Class of committed instruction (Count)
system.cpu.commit.committedInstType_0::SimdSha1Hash2            0      0.00%     77.80% # Class of committed instruction (Count)
system.cpu.commit.committedInstType_0::SimdSha256Hash            0      0.00%     77.80% # Class of committed instruction (Count)
system.cpu.commit.committedInstType_0::SimdSha256Hash2            0      0.00%     77.80% # Class of committed instruction (Count)
system.cpu.commit.committedInstType_0::SimdShaSigma2            0      0.00%     77.80% # Class of committed instruction (Count)
system.cpu.commit.committedInstType_0::SimdShaSigma3            0      0.00%     77.80% # Class of committed instruction (Count)
system.cpu.commit.committedInstType_0::SimdPredAlu            0      0.00%     77.80% # Class of committed instruction (Count)
system.cpu.commit.committedInstType_0::Matrix            0      0.00%     77.80% # Class of committed instruction (Count)
system.cpu.commit.committedInstType_0::MatrixMov            0      0.00%     77.80% # Class of committed instruction (Count)
system.cpu.commit.committedInstType_0::MatrixOP            0      0.00%     77.80% # Class of committed instruction (Count)
system.cpu.commit.committedInstType_0::MemRead     34150840     13.32%     91.12% # Class of committed instruction (Count)
system.cpu.commit.committedInstType_0::MemWrite     17901582      6.98%     98.10% # Class of committed instruction (Count)
system.cpu.commit.committedInstType_0::FloatMemRead       689152      0.27%     98.37% # Class of committed instruction (Count)
system.cpu.commit.committedInstType_0::FloatMemWrite      4185705      1.63%    100.00% # Class of committed instruction (Count)
system.cpu.commit.committedInstType_0::IprAccess            0      0.00%    100.00% # Class of committed instruction (Count)
system.cpu.commit.committedInstType_0::InstPrefetch            0      0.00%    100.00% # Class of committed instruction (Count)
system.cpu.commit.committedInstType_0::SimdUnitStrideLoad            0      0.00%    100.00% # Class of committed instruction (Count)
system.cpu.commit.committedInstType_0::SimdUnitStrideStore            0      0.00%    100.00% # Class of committed instruction (Count)
system.cpu.commit.committedInstType_0::SimdUnitStrideMaskLoad            0      0.00%    100.00% # Class of committed instruction (Count)
system.cpu.commit.committedInstType_0::SimdUnitStrideMaskStore            0      0.00%    100.00% # Class of committed instruction (Count)
system.cpu.commit.committedInstType_0::SimdStridedLoad            0      0.00%    100.00% # Class of committed instruction (Count)
system.cpu.commit.committedInstType_0::SimdStridedStore            0      0.00%    100.00% # Class of committed instruction (Count)
system.cpu.commit.committedInstType_0::SimdIndexedLoad            0      0.00%    100.00% # Class of committed instruction (Count)
system.cpu.commit.committedInstType_0::SimdIndexedStore            0      0.00%    100.00% # Class of committed instruction (Count)
system.cpu.commit.committedInstType_0::SimdWholeRegisterLoad            0      0.00%    100.00% # Class of committed instruction (Count)
system.cpu.commit.committedInstType_0::SimdWholeRegisterStore            0      0.00%    100.00% # Class of committed instruction (Count)
system.cpu.commit.committedInstType_0::SimdUnitStrideFaultOnlyFirstLoad            0      0.00%    100.00% # Class of committed instruction (Count)
system.cpu.commit.committedInstType_0::SimdUnitStrideSegmentedLoad            0      0.00%    100.00% # Class of committed instruction (Count)
system.cpu.commit.committedInstType_0::SimdUnitStrideSegmentedStore            0      0.00%    100.00% # Class of committed instruction (Count)
system.cpu.commit.committedInstType_0::SimdExt            0      0.00%    100.00% # Class of committed instruction (Count)
system.cpu.commit.committedInstType_0::SimdFloatExt            0      0.00%    100.00% # Class of committed instruction (Count)
system.cpu.commit.committedInstType_0::SimdConfig            0      0.00%    100.00% # Class of committed instruction (Count)
system.cpu.commit.committedInstType_0::total    256389422                       # Class of committed instruction (Count)
system.cpu.commit.commitEligibleSamples      23679040                       # number cycles where commit BW limit reached (Cycle)
system.cpu.commitStats0.numInsts            142609581                       # Number of instructions committed (thread level) (Count)
system.cpu.commitStats0.numOps              256389422                       # Number of ops (including micro ops) committed (thread level) (Count)
system.cpu.commitStats0.numInstsNotNOP      142609581                       # Number of instructions committed excluding NOPs or prefetches (Count)
system.cpu.commitStats0.numOpsNotNOP        256389422                       # Number of Ops (including micro ops) Simulated (Count)
system.cpu.commitStats0.cpi                  0.556374                       # CPI: cycles per instruction (thread level) ((Cycle/Count))
system.cpu.commitStats0.ipc                  1.797353                       # IPC: instructions per cycle (thread level) ((Count/Cycle))
system.cpu.commitStats0.numMemRefs           56927279                       # Number of memory references committed (Count)
system.cpu.commitStats0.numFpInsts            9036760                       # Number of float instructions (Count)
system.cpu.commitStats0.numIntInsts         249983291                       # Number of integer instructions (Count)
system.cpu.commitStats0.numLoadInsts         34839992                       # Number of load instructions (Count)
system.cpu.commitStats0.numStoreInsts        22087287                       # Number of store instructions (Count)
system.cpu.commitStats0.numVecInsts                 0                       # Number of vector instructions (Count)
system.cpu.commitStats0.committedInstType::No_OpClass      2220645      0.87%      0.87% # Class of committed instruction. (Count)
system.cpu.commitStats0.committedInstType::IntAlu    186742607     72.84%     73.70% # Class of committed instruction. (Count)
system.cpu.commitStats0.committedInstType::IntMult          205      0.00%     73.70% # Class of committed instruction. (Count)
system.cpu.commitStats0.committedInstType::IntDiv      7609839      2.97%     76.67% # Class of committed instruction. (Count)
system.cpu.commitStats0.committedInstType::FloatAdd       852162      0.33%     77.00% # Class of committed instruction. (Count)
system.cpu.commitStats0.committedInstType::FloatCmp            0      0.00%     77.00% # Class of committed instruction. (Count)
system.cpu.commitStats0.committedInstType::FloatCvt         1264      0.00%     77.00% # Class of committed instruction. (Count)
system.cpu.commitStats0.committedInstType::FloatMult            0      0.00%     77.00% # Class of committed instruction. (Count)
system.cpu.commitStats0.committedInstType::FloatMultAcc            0      0.00%     77.00% # Class of committed instruction. (Count)
system.cpu.commitStats0.committedInstType::FloatDiv            0      0.00%     77.00% # Class of committed instruction. (Count)
system.cpu.commitStats0.committedInstType::FloatMisc            0      0.00%     77.00% # Class of committed instruction. (Count)
system.cpu.commitStats0.committedInstType::FloatSqrt            0      0.00%     77.00% # Class of committed instruction. (Count)
system.cpu.commitStats0.committedInstType::SimdAdd         6580      0.00%     77.01% # Class of committed instruction. (Count)
system.cpu.commitStats0.committedInstType::SimdAddAcc            0      0.00%     77.01% # Class of committed instruction. (Count)
system.cpu.commitStats0.committedInstType::SimdAlu       940421      0.37%     77.37% # Class of committed instruction. (Count)
system.cpu.commitStats0.committedInstType::SimdCmp           36      0.00%     77.37% # Class of committed instruction. (Count)
system.cpu.commitStats0.committedInstType::SimdCvt        13736      0.01%     77.38% # Class of committed instruction. (Count)
system.cpu.commitStats0.committedInstType::SimdMisc      1071837      0.42%     77.80% # Class of committed instruction. (Count)
system.cpu.commitStats0.committedInstType::SimdMult            0      0.00%     77.80% # Class of committed instruction. (Count)
system.cpu.commitStats0.committedInstType::SimdMultAcc            0      0.00%     77.80% # Class of committed instruction. (Count)
system.cpu.commitStats0.committedInstType::SimdMatMultAcc            0      0.00%     77.80% # Class of committed instruction. (Count)
system.cpu.commitStats0.committedInstType::SimdShift         2065      0.00%     77.80% # Class of committed instruction. (Count)
system.cpu.commitStats0.committedInstType::SimdShiftAcc            0      0.00%     77.80% # Class of committed instruction. (Count)
system.cpu.commitStats0.committedInstType::SimdDiv            0      0.00%     77.80% # Class of committed instruction. (Count)
system.cpu.commitStats0.committedInstType::SimdSqrt            0      0.00%     77.80% # Class of committed instruction. (Count)
system.cpu.commitStats0.committedInstType::SimdFloatAdd          107      0.00%     77.80% # Class of committed instruction. (Count)
system.cpu.commitStats0.committedInstType::SimdFloatAlu            0      0.00%     77.80% # Class of committed instruction. (Count)
system.cpu.commitStats0.committedInstType::SimdFloatCmp            0      0.00%     77.80% # Class of committed instruction. (Count)
system.cpu.commitStats0.committedInstType::SimdFloatCvt          532      0.00%     77.80% # Class of committed instruction. (Count)
system.cpu.commitStats0.committedInstType::SimdFloatDiv           54      0.00%     77.80% # Class of committed instruction. (Count)
system.cpu.commitStats0.committedInstType::SimdFloatMisc            0      0.00%     77.80% # Class of committed instruction. (Count)
system.cpu.commitStats0.committedInstType::SimdFloatMult           53      0.00%     77.80% # Class of committed instruction. (Count)
system.cpu.commitStats0.committedInstType::SimdFloatMultAcc            0      0.00%     77.80% # Class of committed instruction. (Count)
system.cpu.commitStats0.committedInstType::SimdFloatMatMultAcc            0      0.00%     77.80% # Class of committed instruction. (Count)
system.cpu.commitStats0.committedInstType::SimdFloatSqrt            0      0.00%     77.80% # Class of committed instruction. (Count)
system.cpu.commitStats0.committedInstType::SimdReduceAdd            0      0.00%     77.80% # Class of committed instruction. (Count)
system.cpu.commitStats0.committedInstType::SimdReduceAlu            0      0.00%     77.80% # Class of committed instruction. (Count)
system.cpu.commitStats0.committedInstType::SimdReduceCmp            0      0.00%     77.80% # Class of committed instruction. (Count)
system.cpu.commitStats0.committedInstType::SimdFloatReduceAdd            0      0.00%     77.80% # Class of committed instruction. (Count)
system.cpu.commitStats0.committedInstType::SimdFloatReduceCmp            0      0.00%     77.80% # Class of committed instruction. (Count)
system.cpu.commitStats0.committedInstType::SimdAes            0      0.00%     77.80% # Class of committed instruction. (Count)
system.cpu.commitStats0.committedInstType::SimdAesMix            0      0.00%     77.80% # Class of committed instruction. (Count)
system.cpu.commitStats0.committedInstType::SimdSha1Hash            0      0.00%     77.80% # Class of committed instruction. (Count)
system.cpu.commitStats0.committedInstType::SimdSha1Hash2            0      0.00%     77.80% # Class of committed instruction. (Count)
system.cpu.commitStats0.committedInstType::SimdSha256Hash            0      0.00%     77.80% # Class of committed instruction. (Count)
system.cpu.commitStats0.committedInstType::SimdSha256Hash2            0      0.00%     77.80% # Class of committed instruction. (Count)
system.cpu.commitStats0.committedInstType::SimdShaSigma2            0      0.00%     77.80% # Class of committed instruction. (Count)
system.cpu.commitStats0.committedInstType::SimdShaSigma3            0      0.00%     77.80% # Class of committed instruction. (Count)
system.cpu.commitStats0.committedInstType::SimdPredAlu            0      0.00%     77.80% # Class of committed instruction. (Count)
system.cpu.commitStats0.committedInstType::Matrix            0      0.00%     77.80% # Class of committed instruction. (Count)
system.cpu.commitStats0.committedInstType::MatrixMov            0      0.00%     77.80% # Class of committed instruction. (Count)
system.cpu.commitStats0.committedInstType::MatrixOP            0      0.00%     77.80% # Class of committed instruction. (Count)
system.cpu.commitStats0.committedInstType::MemRead     34150840     13.32%     91.12% # Class of committed instruction. (Count)
system.cpu.commitStats0.committedInstType::MemWrite     17901582      6.98%     98.10% # Class of committed instruction. (Count)
system.cpu.commitStats0.committedInstType::FloatMemRead       689152      0.27%     98.37% # Class of committed instruction. (Count)
system.cpu.commitStats0.committedInstType::FloatMemWrite      4185705      1.63%    100.00% # Class of committed instruction. (Count)
system.cpu.commitStats0.committedInstType::IprAccess            0      0.00%    100.00% # Class of committed instruction. (Count)
system.cpu.commitStats0.committedInstType::InstPrefetch            0      0.00%    100.00% # Class of committed instruction. (Count)
system.cpu.commitStats0.committedInstType::SimdUnitStrideLoad            0      0.00%    100.00% # Class of committed instruction. (Count)
system.cpu.commitStats0.committedInstType::SimdUnitStrideStore            0      0.00%    100.00% # Class of committed instruction. (Count)
system.cpu.commitStats0.committedInstType::SimdUnitStrideMaskLoad            0      0.00%    100.00% # Class of committed instruction. (Count)
system.cpu.commitStats0.committedInstType::SimdUnitStrideMaskStore            0      0.00%    100.00% # Class of committed instruction. (Count)
system.cpu.commitStats0.committedInstType::SimdStridedLoad            0      0.00%    100.00% # Class of committed instruction. (Count)
system.cpu.commitStats0.committedInstType::SimdStridedStore            0      0.00%    100.00% # Class of committed instruction. (Count)
system.cpu.commitStats0.committedInstType::SimdIndexedLoad            0      0.00%    100.00% # Class of committed instruction. (Count)
system.cpu.commitStats0.committedInstType::SimdIndexedStore            0      0.00%    100.00% # Class of committed instruction. (Count)
system.cpu.commitStats0.committedInstType::SimdWholeRegisterLoad            0      0.00%    100.00% # Class of committed instruction. (Count)
system.cpu.commitStats0.committedInstType::SimdWholeRegisterStore            0      0.00%    100.00% # Class of committed instruction. (Count)
system.cpu.commitStats0.committedInstType::SimdUnitStrideFaultOnlyFirstLoad            0      0.00%    100.00% # Class of committed instruction. (Count)
system.cpu.commitStats0.committedInstType::SimdUnitStrideSegmentedLoad            0      0.00%    100.00% # Class of committed instruction. (Count)
system.cpu.commitStats0.committedInstType::SimdUnitStrideSegmentedStore            0      0.00%    100.00% # Class of committed instruction. (Count)
system.cpu.commitStats0.committedInstType::SimdExt            0      0.00%    100.00% # Class of committed instruction. (Count)
system.cpu.commitStats0.committedInstType::SimdFloatExt            0      0.00%    100.00% # Class of committed instruction. (Count)
system.cpu.commitStats0.committedInstType::SimdConfig            0      0.00%    100.00% # Class of committed instruction. (Count)
system.cpu.commitStats0.committedInstType::total    256389422                       # Class of committed instruction. (Count)
system.cpu.commitStats0.committedControl::IsControl     27607279                       # Class of control type instructions committed (Count)
system.cpu.commitStats0.committedControl::IsDirectControl     24766124                       # Class of control type instructions committed (Count)
system.cpu.commitStats0.committedControl::IsIndirectControl      2840827                       # Class of control type instructions committed (Count)
system.cpu.commitStats0.committedControl::IsCondControl     21178335                       # Class of control type instructions committed (Count)
system.cpu.commitStats0.committedControl::IsUncondControl      6428616                       # Class of control type instructions committed (Count)
system.cpu.commitStats0.committedControl::IsCall      1554749                       # Class of control type instructions committed (Count)
system.cpu.commitStats0.committedControl::IsReturn      1554744                       # Class of control type instructions committed (Count)
system.cpu.decode.idleCycles                 21974060                       # Number of cycles decode is idle (Cycle)
system.cpu.decode.blockedCycles              14138397                       # Number of cycles decode is blocked (Cycle)
system.cpu.decode.runCycles                  38650105                       # Number of cycles decode is running (Cycle)
system.cpu.decode.unblockCycles               4265679                       # Number of cycles decode is unblocking (Cycle)
system.cpu.decode.squashCycles                 194926                       # Number of cycles decode is squashing (Cycle)
system.cpu.decode.branchResolved             10339438                       # Number of times decode resolved a branch (Count)
system.cpu.decode.branchMispred                  1681                       # Number of times decode detected a branch misprediction (Count)
system.cpu.decode.decodedInsts              277886579                       # Number of instructions handled by decode (Count)
system.cpu.decode.squashedInsts                  8783                       # Number of squashed instructions handled by decode (Count)
system.cpu.executeStats0.numInsts           270911970                       # Number of executed instructions (Count)
system.cpu.executeStats0.numNop                     0                       # Number of nop insts executed (Count)
system.cpu.executeStats0.numBranches         29023701                       # Number of branches executed (Count)
system.cpu.executeStats0.numLoadInsts        36357971                       # Number of load instructions executed (Count)
system.cpu.executeStats0.numStoreInsts       22831761                       # Number of stores executed (Count)
system.cpu.executeStats0.instRate            3.414388                       # Inst execution rate ((Count/Cycle))
system.cpu.executeStats0.numCCRegReads      134577958                       # Number of times the CC registers were read (Count)
system.cpu.executeStats0.numCCRegWrites      87979592                       # Number of times the CC registers were written (Count)
system.cpu.executeStats0.numFpRegReads        9785433                       # Number of times the floating registers were read (Count)
system.cpu.executeStats0.numFpRegWrites       4648915                       # Number of times the floating registers were written (Count)
system.cpu.executeStats0.numIntRegReads     337429623                       # Number of times the integer registers were read (Count)
system.cpu.executeStats0.numIntRegWrites    206551809                       # Number of times the integer registers were written (Count)
system.cpu.executeStats0.numMemRefs          59189732                       # Number of memory refs (Count)
system.cpu.executeStats0.numMiscRegReads    118822563                       # Number of times the Misc registers were read (Count)
system.cpu.executeStats0.numMiscRegWrites          711                       # Number of times the Misc registers were written (Count)
system.cpu.executeStats0.numVecAluAccesses            0                       # Number of vector alu accesses (Count)
system.cpu.executeStats0.numDiscardedOps            0                       # Number of ops (including micro ops) which were discarded before commit (Count)
system.cpu.fetch.predictedBranches           13529663                       # Number of branches that fetch has predicted taken (Count)
system.cpu.fetch.cycles                      58116789                       # Number of cycles fetch has run and was not squashing or blocked (Cycle)
system.cpu.fetch.squashCycles                  393142                       # Number of cycles fetch has spent squashing (Cycle)
system.cpu.fetch.miscStallCycles                  253                       # Number of cycles fetch has spent waiting on interrupts, or bad addresses, or out of MSHRs (Cycle)
system.cpu.fetch.pendingTrapStallCycles          2396                       # Number of stall cycles due to pending traps (Cycle)
system.cpu.fetch.cacheLines                  22768774                       # Number of cache lines fetched (Count)
[...]
system.mem_ctrl.dram.bwInstRead::cpu.inst    220325350                       # Instruction read bandwidth from this memory ((Byte/Second))
system.mem_ctrl.dram.bwInstRead::total      220325350                       # Instruction read bandwidth from this memory ((Byte/Second))
system.mem_ctrl.dram.bwWrite::writebacks     21546675                       # Write bandwidth from this memory ((Byte/Second))
system.mem_ctrl.dram.bwWrite::total          21546675                       # Write bandwidth from this memory ((Byte/Second))
system.mem_ctrl.dram.bwTotal::writebacks     21546675                       # Total bandwidth to/from this memory ((Byte/Second))
system.mem_ctrl.dram.bwTotal::cpu.inst      220325350                       # Total bandwidth to/from this memory ((Byte/Second))
system.mem_ctrl.dram.bwTotal::cpu.data       34708349                       # Total bandwidth to/from this memory ((Byte/Second))
system.mem_ctrl.dram.bwTotal::cpu.l1d.prefetcher     26246170                       # Total bandwidth to/from this memory ((Byte/Second))
system.mem_ctrl.dram.bwTotal::total         302826544                       # Total bandwidth to/from this memory ((Byte/Second))
system.mem_ctrl.dram.readBursts                228583                       # Number of DRAM read bursts (Count)
system.mem_ctrl.dram.writeBursts                10483                       # Number of DRAM write bursts (Count)
system.mem_ctrl.dram.perBankRdBursts::0          2264                       # Per bank write bursts (Count)
system.mem_ctrl.dram.perBankRdBursts::1          5649                       # Per bank write bursts (Count)
system.mem_ctrl.dram.perBankRdBursts::2          1933                       # Per bank write bursts (Count)
system.mem_ctrl.dram.perBankRdBursts::3         17764                       # Per bank write bursts (Count)
system.mem_ctrl.dram.perBankRdBursts::4          2004                       # Per bank write bursts (Count)
system.mem_ctrl.dram.perBankRdBursts::5          1691                       # Per bank write bursts (Count)
system.mem_ctrl.dram.perBankRdBursts::6          3329                       # Per bank write bursts (Count)
system.mem_ctrl.dram.perBankRdBursts::7          1797                       # Per bank write bursts (Count)
system.mem_ctrl.dram.perBankRdBursts::8         14583                       # Per bank write bursts (Count)
system.mem_ctrl.dram.perBankRdBursts::9         89930                       # Per bank write bursts (Count)
system.mem_ctrl.dram.perBankRdBursts::10        27520                       # Per bank write bursts (Count)
system.mem_ctrl.dram.perBankRdBursts::11        30848                       # Per bank write bursts (Count)
system.mem_ctrl.dram.perBankRdBursts::12        18497                       # Per bank write bursts (Count)
system.mem_ctrl.dram.perBankRdBursts::13         1536                       # Per bank write bursts (Count)
system.mem_ctrl.dram.perBankRdBursts::14         6423                       # Per bank write bursts (Count)
system.mem_ctrl.dram.perBankRdBursts::15         2815                       # Per bank write bursts (Count)
system.mem_ctrl.dram.perBankWrBursts::0           655                       # Per bank write bursts (Count)
system.mem_ctrl.dram.perBankWrBursts::1           474                       # Per bank write bursts (Count)
system.mem_ctrl.dram.perBankWrBursts::2           442                       # Per bank write bursts (Count)
system.mem_ctrl.dram.perBankWrBursts::3           418                       # Per bank write bursts (Count)
system.mem_ctrl.dram.perBankWrBursts::4           625                       # Per bank write bursts (Count)
system.mem_ctrl.dram.perBankWrBursts::5           572                       # Per bank write bursts (Count)
system.mem_ctrl.dram.perBankWrBursts::6           746                       # Per bank write bursts (Count)
system.mem_ctrl.dram.perBankWrBursts::7           562                       # Per bank write bursts (Count)
system.mem_ctrl.dram.perBankWrBursts::8           578                       # Per bank write bursts (Count)
system.mem_ctrl.dram.perBankWrBursts::9           415                       # Per bank write bursts (Count)
system.mem_ctrl.dram.perBankWrBursts::10         1211                       # Per bank write bursts (Count)
system.mem_ctrl.dram.perBankWrBursts::11          868                       # Per bank write bursts (Count)
system.mem_ctrl.dram.perBankWrBursts::12          802                       # Per bank write bursts (Count)
system.mem_ctrl.dram.perBankWrBursts::13          609                       # Per bank write bursts (Count)
system.mem_ctrl.dram.perBankWrBursts::14          772                       # Per bank write bursts (Count)
system.mem_ctrl.dram.perBankWrBursts::15          734                       # Per bank write bursts (Count)
system.mem_ctrl.dram.totQLat               2486742031                       # Total ticks spent queuing (Tick)
system.mem_ctrl.dram.totBusLat             1142915000                       # Total ticks spent in databus transfers (Tick)
system.mem_ctrl.dram.totMemAccLat          6772673281                       # Total ticks spent from burst creation until serviced by the DRAM (Tick)
system.mem_ctrl.dram.avgQLat                 10878.95                       # Average queueing delay per DRAM burst ((Tick/Count))
system.mem_ctrl.dram.avgBusLat                5000.00                       # Average bus latency per DRAM burst ((Tick/Count))
system.mem_ctrl.dram.avgMemAccLat            29628.95                       # Average memory access latency per DRAM burst ((Tick/Count))
system.mem_ctrl.dram.readRowHits               159705                       # Number of row buffer hits during reads (Count)
system.mem_ctrl.dram.writeRowHits                9580                       # Number of row buffer hits during writes (Count)
system.mem_ctrl.dram.readRowHitRate             69.87                       # Row buffer hit rate for reads (Ratio)
system.mem_ctrl.dram.writeRowHitRate            91.39                       # Row buffer hit rate for writes (Ratio)
system.mem_ctrl.dram.bytesPerActivate::samples        69785                       # Bytes accessed per row activation (Byte)
system.mem_ctrl.dram.bytesPerActivate::mean   219.252619                       # Bytes accessed per row activation (Byte)
system.mem_ctrl.dram.bytesPerActivate::gmean   152.242894                       # Bytes accessed per row activation (Byte)
system.mem_ctrl.dram.bytesPerActivate::stdev   226.321411                       # Bytes accessed per row activation (Byte)
system.mem_ctrl.dram.bytesPerActivate::0-127        24414     34.98%     34.98% # Bytes accessed per row activation (Byte)
system.mem_ctrl.dram.bytesPerActivate::128-255        22956     32.90%     67.88% # Bytes accessed per row activation (Byte)
system.mem_ctrl.dram.bytesPerActivate::256-383        12505     17.92%     85.80% # Bytes accessed per row activation (Byte)
system.mem_ctrl.dram.bytesPerActivate::384-511         3833      5.49%     91.29% # Bytes accessed per row activation (Byte)
system.mem_ctrl.dram.bytesPerActivate::512-639          603      0.86%     92.16% # Bytes accessed per row activation (Byte)
system.mem_ctrl.dram.bytesPerActivate::640-767          665      0.95%     93.11% # Bytes accessed per row activation (Byte)
system.mem_ctrl.dram.bytesPerActivate::768-895         1239      1.78%     94.88% # Bytes accessed per row activation (Byte)
system.mem_ctrl.dram.bytesPerActivate::896-1023         1530      2.19%     97.08% # Bytes accessed per row activation (Byte)
system.mem_ctrl.dram.bytesPerActivate::1024-1151         2040      2.92%    100.00% # Bytes accessed per row activation (Byte)
system.mem_ctrl.dram.bytesPerActivate::total        69785                       # Bytes accessed per row activation (Byte)
system.mem_ctrl.dram.dramBytesRead           14629312                       # Total bytes read (Byte)
system.mem_ctrl.dram.dramBytesWritten          670912                       # Total bytes written (Byte)
system.mem_ctrl.dram.avgRdBW               271.405942                       # Average DRAM read bandwidth in MiBytes/s ((Byte/Second))
system.mem_ctrl.dram.avgWrBW                12.446895                       # Average DRAM write bandwidth in MiBytes/s ((Byte/Second))
system.mem_ctrl.dram.peakBW                  12800.00                       # Theoretical peak bandwidth in MiByte/s ((Byte/Second))
system.mem_ctrl.dram.busUtil                     2.22                       # Data bus utilization in percentage (Ratio)
system.mem_ctrl.dram.busUtilRead                 2.12                       # Data bus utilization in percentage for reads (Ratio)
system.mem_ctrl.dram.busUtilWrite                0.10                       # Data bus utilization in percentage for writes (Ratio)
system.mem_ctrl.dram.pageHitRate                70.81                       # Row buffer hit rate, read and write combined (Ratio)
system.mem_ctrl.dram.power_state.pwrStateResidencyTicks::UNDEFINED  53901959084                       # Cumulative time (in ticks) in various power states (Tick)
system.mem_ctrl.dram.rank0.actEnergy        108492300                       # Energy for activate commands per rank (pJ) (Joule)
system.mem_ctrl.dram.rank0.preEnergy         57672615                       # Energy for precharge commands per rank (pJ) (Joule)
system.mem_ctrl.dram.rank0.readEnergy       260117340                       # Energy for read commands per rank (pJ) (Joule)
system.mem_ctrl.dram.rank0.writeEnergy       23458680                       # Energy for write commands per rank (pJ) (Joule)
system.mem_ctrl.dram.rank0.refreshEnergy 4255152720.000000                       # Energy for refresh commands per rank (pJ) (Joule)
system.mem_ctrl.dram.rank0.actBackEnergy  17676047130                       # Energy for active background per rank (pJ) (Joule)
system.mem_ctrl.dram.rank0.preBackEnergy   5813260320                       # Energy for precharge background per rank (pJ) (Joule)
system.mem_ctrl.dram.rank0.actPowerDownEnergy            0                       # Energy for active power-down per rank (pJ) (Joule)
system.mem_ctrl.dram.rank0.prePowerDownEnergy            0                       # Energy for precharge power-down per rank (pJ) (Joule)
system.mem_ctrl.dram.rank0.selfRefreshEnergy            0                       # Energy for self refresh per rank (pJ) (Joule)
system.mem_ctrl.dram.rank0.totalEnergy    28194201105                       # Total energy per rank (pJ) (Joule)
system.mem_ctrl.dram.rank0.averagePower    523.064497                       # Core power per rank (mW) (Watt)
system.mem_ctrl.dram.rank0.totalIdleTime            0                       # Total Idle time Per DRAM Rank (Tick)
system.mem_ctrl.dram.rank0.pwrStateTime::IDLE  14941663970                       # Time in different power states (Tick)
system.mem_ctrl.dram.rank0.pwrStateTime::REF   1799980000                       # Time in different power states (Tick)
system.mem_ctrl.dram.rank0.pwrStateTime::SREF            0                       # Time in different power states (Tick)
system.mem_ctrl.dram.rank0.pwrStateTime::PRE_PDN            0                       # Time in different power states (Tick)
system.mem_ctrl.dram.rank0.pwrStateTime::ACT  37160315114                       # Time in different power states (Tick)
system.mem_ctrl.dram.rank0.pwrStateTime::ACT_PDN            0                       # Time in different power states (Tick)
system.mem_ctrl.dram.rank1.actEnergy        389744040                       # Energy for activate commands per rank (pJ) (Joule)
system.mem_ctrl.dram.rank1.preEnergy        207161460                       # Energy for precharge commands per rank (pJ) (Joule)
system.mem_ctrl.dram.rank1.readEnergy      1371965280                       # Energy for read commands per rank (pJ) (Joule)
system.mem_ctrl.dram.rank1.writeEnergy       31262580                       # Energy for write commands per rank (pJ) (Joule)
system.mem_ctrl.dram.rank1.refreshEnergy 4255152720.000000                       # Energy for refresh commands per rank (pJ) (Joule)
system.mem_ctrl.dram.rank1.actBackEnergy  23729518380                       # Energy for active background per rank (pJ) (Joule)
system.mem_ctrl.dram.rank1.preBackEnergy    715600320                       # Energy for precharge background per rank (pJ) (Joule)
system.mem_ctrl.dram.rank1.actPowerDownEnergy            0                       # Energy for active power-down per rank (pJ) (Joule)
system.mem_ctrl.dram.rank1.prePowerDownEnergy            0                       # Energy for precharge power-down per rank (pJ) (Joule)
system.mem_ctrl.dram.rank1.selfRefreshEnergy            0                       # Energy for self refresh per rank (pJ) (Joule)
system.mem_ctrl.dram.rank1.totalEnergy    30700404780                       # Total energy per rank (pJ) (Joule)
system.mem_ctrl.dram.rank1.averagePower    569.560092                       # Core power per rank (mW) (Watt)
system.mem_ctrl.dram.rank1.totalIdleTime            0                       # Total Idle time Per DRAM Rank (Tick)
system.mem_ctrl.dram.rank1.pwrStateTime::IDLE   1654309466                       # Time in different power states (Tick)
system.mem_ctrl.dram.rank1.pwrStateTime::REF   1799980000                       # Time in different power states (Tick)
system.mem_ctrl.dram.rank1.pwrStateTime::SREF            0                       # Time in different power states (Tick)
system.mem_ctrl.dram.rank1.pwrStateTime::PRE_PDN            0                       # Time in different power states (Tick)
system.mem_ctrl.dram.rank1.pwrStateTime::ACT  50447669618                       # Time in different power states (Tick)
system.mem_ctrl.dram.rank1.pwrStateTime::ACT_PDN            0                       # Time in different power states (Tick)
system.mem_ctrl.power_state.pwrStateResidencyTicks::UNDEFINED  53901959084                       # Cumulative time (in ticks) in various power states (Tick)
system.membus.transDist::ReadResp              227867                       # Transaction distribution (Count)
system.membus.transDist::WritebackDirty         18147                       # Transaction distribution (Count)
system.membus.transDist::CleanEvict            218751                       # Transaction distribution (Count)
system.membus.transDist::UpgradeReq                 1                       # Transaction distribution (Count)
system.membus.transDist::ReadExReq               9032                       # Transaction distribution (Count)
system.membus.transDist::ReadExResp              9032                       # Transaction distribution (Count)
system.membus.transDist::ReadSharedReq         227867                       # Transaction distribution (Count)
system.membus.pktCount_system.cpu.l1d.mem_side_port::system.mem_ctrl.port       154012                       # Packet count per connected requestor and responder (Count)
system.membus.pktCount_system.cpu.l1d.mem_side_port::total       154012                       # Packet count per connected requestor and responder (Count)
system.membus.pktCount_system.cpu.l1i.mem_side_port::system.mem_ctrl.port       556684                       # Packet count per connected requestor and responder (Count)
system.membus.pktCount_system.cpu.l1i.mem_side_port::total       556684                       # Packet count per connected requestor and responder (Count)
system.membus.pktCount::total                  710696                       # Packet count per connected requestor and responder (Count)
system.membus.pktSize_system.cpu.l1d.mem_side_port::system.mem_ctrl.port      4446976                       # Cumulative packet size per connected requestor and responder (Byte)
system.membus.pktSize_system.cpu.l1d.mem_side_port::total      4446976                       # Cumulative packet size per connected requestor and responder (Byte)
system.membus.pktSize_system.cpu.l1i.mem_side_port::system.mem_ctrl.port     11875904                       # Cumulative packet size per connected requestor and responder (Byte)
system.membus.pktSize_system.cpu.l1i.mem_side_port::total     11875904                       # Cumulative packet size per connected requestor and responder (Byte)
system.membus.pktSize::total                 16322880                       # Cumulative packet size per connected requestor and responder (Byte)
system.membus.snoops                                1                       # Total snoops (Count)
system.membus.snoopTraffic                         64                       # Total snoop traffic (Byte)
system.membus.snoopFanout::samples             236900                       # Request fanout histogram (Count)
system.membus.snoopFanout::mean              0.000160                       # Request fanout histogram (Count)
system.membus.snoopFanout::stdev             0.012664                       # Request fanout histogram (Count)
system.membus.snoopFanout::underflows               0      0.00%      0.00% # Request fanout histogram (Count)
system.membus.snoopFanout::0                   236862     99.98%     99.98% # Request fanout histogram (Count)
system.membus.snoopFanout::1                       38      0.02%    100.00% # Request fanout histogram (Count)
system.membus.snoopFanout::2                        0      0.00%    100.00% # Request fanout histogram (Count)
system.membus.snoopFanout::overflows                0      0.00%    100.00% # Request fanout histogram (Count)
system.membus.snoopFanout::min_value                0                       # Request fanout histogram (Count)
system.membus.snoopFanout::max_value                1                       # Request fanout histogram (Count)
system.membus.snoopFanout::total               236900                       # Request fanout histogram (Count)
system.membus.power_state.pwrStateResidencyTicks::UNDEFINED  53901959084                       # Cumulative time (in ticks) in various power states (Tick)
system.membus.reqLayer2.occupancy          7398230511                       # Layer occupancy (ticks) (Tick)
system.membus.reqLayer2.utilization               0.1                       # Layer utilization (Ratio)
system.membus.respLayer2.occupancy         3478992205                       # Layer occupancy (ticks) (Tick)
system.membus.respLayer2.utilization              0.1                       # Layer utilization (Ratio)
system.membus.respLayer3.occupancy        12633768262                       # Layer occupancy (ticks) (Tick)
system.membus.respLayer3.utilization              0.2                       # Layer utilization (Ratio)
system.membus.snoop_filter.totRequests         473798                       # Total number of requests made to the snoop filter. (Count)
system.membus.snoop_filter.hitSingleRequests       236899                       # Number of requests hitting in the snoop filter with a single holder of the requested data. (Count)
system.membus.snoop_filter.hitMultiRequests           37                       # Number of requests hitting in the snoop filter with multiple (>1) holders of the requested data. (Count)
system.membus.snoop_filter.totSnoops                0                       # Total number of snoops made to the snoop filter. (Count)
system.membus.snoop_filter.hitSingleSnoops            0                       # Number of snoops hitting in the snoop filter with a single holder of the requested data. (Count)
system.membus.snoop_filter.hitMultiSnoops            0                       # Number of snoops hitting in the snoop filter with multiple (>1) holders of the requested data. (Count)
system.workload.inst.arm                            0                       # number of arm instructions executed (Count)
system.workload.inst.quiesce                        0                       # number of quiesce instructions executed (Count)

---------- End Simulation Statistics   ----------
