
---------- Begin Simulation Statistics ----------
simSeconds                                   2.992856                       # Number of seconds simulated (Second)
simTicks                                 2992856216724                       # Number of ticks simulated (Tick)
finalTick                                2992856216724                       # Number of ticks from beginning of simulation (restored from checkpoints and never reset) (Tick)
simFreq                                  1000000000000                       # The number of ticks per simulated second ((Tick/Second))
hostSeconds                                   1322.84                       # Real time elapsed on the host (Second)
hostTickRate                               2262455655                       # The number of ticks simulated per host second (ticks/s) ((Tick/Second))
hostMemory                                    8656976                       # Number of bytes of host memory used (Byte)
simInsts                                    265600347                       # Number of instructions simulated (Count)
simOps                                      501612350                       # Number of ops (including micro ops) simulated (Count)
hostInstRate                                   200781                       # Simulator instruction rate (inst/s) ((Count/Second))
hostOpRate                                     379195                       # Simulator op (including micro ops) rate (op/s) ((Count/Second))
system.clk_domain.clock                         13333                       # Clock period in ticks (Tick)
system.clk_domain.voltage_domain.voltage            1                       # Voltage in Volts (Volt)
system.cpu.numCycles                        224469829                       # Number of cpu cycles simulated (Cycle)
system.cpu.cpi                               0.845141                       # CPI: cycles per instruction (core level) ((Cycle/Count))
system.cpu.ipc                               1.183234                       # IPC: instructions per cycle (core level) ((Count/Cycle))
system.cpu.numWorkItemsStarted                      0                       # Number of work items this cpu started (Count)
system.cpu.numWorkItemsCompleted                    0                       # Number of work items this cpu completed (Count)
system.cpu.instsAdded                       666331180                       # Number of instructions added to the IQ (excludes non-spec) (Count)
system.cpu.nonSpecInstsAdded                     3479                       # Number of non-speculative instructions added to the IQ (Count)
system.cpu.instsIssued                      616023847                       # Number of instructions issued (Count)
system.cpu.squashedInstsIssued                2956435                       # Number of squashed instructions issued (Count)
system.cpu.squashedInstsExamined            164722298                       # Number of squashed instructions iterated over during squash; mainly for profiling (Count)
system.cpu.squashedOperandsExamined         285426918                       # Number of squashed operands that are examined and possibly removed from graph (Count)
system.cpu.squashedNonSpecRemoved                 431                       # Number of squashed non-spec instructions that were removed (Count)
system.cpu.numIssuedDist::samples           223101504                       # Number of insts issued each cycle (Count)
system.cpu.numIssuedDist::mean               2.761182                       # Number of insts issued each cycle (Count)
system.cpu.numIssuedDist::stdev              2.847771                       # Number of insts issued each cycle (Count)
system.cpu.numIssuedDist::underflows                0      0.00%      0.00% # Number of insts issued each cycle (Count)
system.cpu.numIssuedDist::0                  90614807     40.62%     40.62% # Number of insts issued each cycle (Count)
system.cpu.numIssuedDist::1                  16623189      7.45%     48.07% # Number of insts issued each cycle (Count)
system.cpu.numIssuedDist::2                  12933009      5.80%     53.86% # Number of insts issued each cycle (Count)
system.cpu.numIssuedDist::3                  14366283      6.44%     60.30% # Number of insts issued each cycle (Count)
system.cpu.numIssuedDist::4                  12031481      5.39%     65.70% # Number of insts issued each cycle (Count)
system.cpu.numIssuedDist::5                  19340426      8.67%     74.36% # Number of insts issued each cycle (Count)
system.cpu.numIssuedDist::6                  27624697     12.38%     86.75% # Number of insts issued each cycle (Count)
system.cpu.numIssuedDist::7                  16681341      7.48%     94.22% # Number of insts issued each cycle (Count)
system.cpu.numIssuedDist::8                  12886271      5.78%    100.00% # Number of insts issued each cycle (Count)
system.cpu.numIssuedDist::overflows                 0      0.00%    100.00% # Number of insts issued each cycle (Count)
system.cpu.numIssuedDist::min_value                 0                       # Number of insts issued each cycle (Count)
system.cpu.numIssuedDist::max_value                 8                       # Number of insts issued each cycle (Count)
system.cpu.numIssuedDist::total             223101504                       # Number of insts issued each cycle (Count)
system.cpu.statFuBusy::No_OpClass                   0      0.00%      0.00% # attempts to use FU when none available (Count)
system.cpu.statFuBusy::IntAlu                18065617     83.88%     83.88% # attempts to use FU when none available (Count)
system.cpu.statFuBusy::IntMult                      0      0.00%     83.88% # attempts to use FU when none available (Count)
system.cpu.statFuBusy::IntDiv                       0      0.00%     83.88% # attempts to use FU when none available (Count)
system.cpu.statFuBusy::FloatAdd                     0      0.00%     83.88% # attempts to use FU when none available (Count)
system.cpu.statFuBusy::FloatCmp                     0      0.00%     83.88% # attempts to use FU when none available (Count)
system.cpu.statFuBusy::FloatCvt                     0      0.00%     83.88% # attempts to use FU when none available (Count)
system.cpu.statFuBusy::FloatMult                    0      0.00%     83.88% # attempts to use FU when none available (Count)
system.cpu.statFuBusy::FloatMultAcc                 0      0.00%     83.88% # attempts to use FU when none available (Count)
system.cpu.statFuBusy::FloatDiv                     0      0.00%     83.88% # attempts to use FU when none available (Count)
system.cpu.statFuBusy::FloatMisc                    0      0.00%     83.88% # attempts to use FU when none available (Count)
system.cpu.statFuBusy::FloatSqrt                    0      0.00%     83.88% # attempts to use FU when none available (Count)
system.cpu.statFuBusy::SimdAdd                      3      0.00%     83.88% # attempts to use FU when none available (Count)
system.cpu.statFuBusy::SimdAddAcc                   0      0.00%     83.88% # attempts to use FU when none available (Count)
system.cpu.statFuBusy::SimdAlu                  65583      0.30%     84.18% # attempts to use FU when none available (Count)
system.cpu.statFuBusy::SimdCmp                      1      0.00%     84.18% # attempts to use FU when none available (Count)
system.cpu.statFuBusy::SimdCvt                    173      0.00%     84.18% # attempts to use FU when none available (Count)
system.cpu.statFuBusy::SimdMisc                    23      0.00%     84.18% # attempts to use FU when none available (Count)
system.cpu.statFuBusy::SimdMult                     0      0.00%     84.18% # attempts to use FU when none available (Count)
system.cpu.statFuBusy::SimdMultAcc                  0      0.00%     84.18% # attempts to use FU when none available (Count)
system.cpu.statFuBusy::SimdMatMultAcc               0      0.00%     84.18% # attempts to use FU when none available (Count)
system.cpu.statFuBusy::SimdShift                   21      0.00%     84.18% # attempts to use FU when none available (Count)
system.cpu.statFuBusy::SimdShiftAcc                 0      0.00%     84.18% # attempts to use FU when none available (Count)
system.cpu.statFuBusy::SimdDiv                      0      0.00%     84.18% # attempts to use FU when none available (Count)
system.cpu.statFuBusy::SimdSqrt                     0      0.00%     84.18% # attempts to use FU when none available (Count)
system.cpu.statFuBusy::SimdFloatAdd                 0      0.00%     84.18% # attempts to use FU when none available (Count)
system.cpu.statFuBusy::SimdFloatAlu                 0      0.00%     84.18% # attempts to use FU when none available (Count)
system.cpu.statFuBusy::SimdFloatCmp                 0      0.00%     84.18% # attempts to use FU when none available (Count)
system.cpu.statFuBusy::SimdFloatCvt             15773      0.07%     84.26% # attempts to use FU when none available (Count)
system.cpu.statFuBusy::SimdFloatDiv                 0      0.00%     84.26% # attempts to use FU when none available (Count)
system.cpu.statFuBusy::SimdFloatMisc                0      0.00%     84.26% # attempts to use FU when none available (Count)
system.cpu.statFuBusy::SimdFloatMult                0      0.00%     84.26% # attempts to use FU when none available (Count)
system.cpu.statFuBusy::SimdFloatMultAcc             0      0.00%     84.26% # attempts to use FU when none available (Count)
system.cpu.statFuBusy::SimdFloatMatMultAcc            0      0.00%     84.26% # attempts to use FU when none available (Count)
system.cpu.statFuBusy::SimdFloatSqrt                0      0.00%     84.26% # attempts to use FU when none available (Count)
system.cpu.statFuBusy::SimdReduceAdd                0      0.00%     84.26% # attempts to use FU when none available (Count)
system.cpu.statFuBusy::SimdReduceAlu                0      0.00%     84.26% # attempts to use FU when none available (Count)
system.cpu.statFuBusy::SimdReduceCmp                0      0.00%     84.26% # attempts to use FU when none available (Count)
system.cpu.statFuBusy::SimdFloatReduceAdd            0      0.00%     84.26% # attempts to use FU when none available (Count)
system.cpu.statFuBusy::SimdFloatReduceCmp            0      0.00%     84.26% # attempts to use FU when none available (Count)
system.cpu.statFuBusy::SimdAes                      0      0.00%     84.26% # attempts to use FU when none available (Count)
system.cpu.statFuBusy::SimdAesMix                   0      0.00%     84.26% # attempts to use FU when none available (Count)
system.cpu.statFuBusy::SimdSha1Hash                 0      0.00%     84.26% # attempts to use FU when none available (Count)
system.cpu.statFuBusy::SimdSha1Hash2                0      0.00%     84.26% # attempts to use FU when none available (Count)
system.cpu.statFuBusy::SimdSha256Hash               0      0.00%     84.26% # attempts to use FU when none available (Count)
system.cpu.statFuBusy::SimdSha256Hash2              0      0.00%     84.26% # attempts to use FU when none available (Count)
system.cpu.statFuBusy::SimdShaSigma2                0      0.00%     84.26% # attempts to use FU when none available (Count)
system.cpu.statFuBusy::SimdShaSigma3                0      0.00%     84.26% # attempts to use FU when none available (Count)
system.cpu.statFuBusy::SimdPredAlu                  0      0.00%     84.26% # attempts to use FU when none available (Count)
system.cpu.statFuBusy::Matrix                       0      0.00%     84.26% # attempts to use FU when none available (Count)
system.cpu.statFuBusy::MatrixMov                    0      0.00%     84.26% # attempts to use FU when none available (Count)
system.cpu.statFuBusy::MatrixOP                     0      0.00%     84.26% # attempts to use FU when none available (Count)
system.cpu.statFuBusy::MemRead                1750089      8.13%     92.38% # attempts to use FU when none available (Count)
system.cpu.statFuBusy::MemWrite                158832      0.74%     93.12% # attempts to use FU when none available (Count)
system.cpu.statFuBusy::FloatMemRead           1235399      5.74%     98.86% # attempts to use FU when none available (Count)
system.cpu.statFuBusy::FloatMemWrite           246104      1.14%    100.00% # attempts to use FU when none available (Count)
system.cpu.statFuBusy::IprAccess                    0      0.00%    100.00% # attempts to use FU when none available (Count)
system.cpu.statFuBusy::InstPrefetch                 0      0.00%    100.00% # attempts to use FU when none available (Count)
system.cpu.statFuBusy::SimdUnitStrideLoad            0      0.00%    100.00% # attempts to use FU when none available (Count)
system.cpu.statFuBusy::SimdUnitStrideStore            0      0.00%    100.00% # attempts to use FU when none available (Count)
system.cpu.statFuBusy::SimdUnitStrideMaskLoad            0      0.00%    100.00% # attempts to use FU when none available (Count)
system.cpu.statFuBusy::SimdUnitStrideMaskStore            0      0.00%    100.00% # attempts to use FU when none available (Count)
system.cpu.statFuBusy::SimdStridedLoad              0      0.00%    100.00% # attempts to use FU when none available (Count)
system.cpu.statFuBusy::SimdStridedStore             0      0.00%    100.00% # attempts to use FU when none available (Count)
system.cpu.statFuBusy::SimdIndexedLoad              0      0.00%    100.00% # attempts to use FU when none available (Count)
system.cpu.statFuBusy::SimdIndexedStore             0      0.00%    100.00% # attempts to use FU when none available (Count)
system.cpu.statFuBusy::SimdWholeRegisterLoad            0      0.00%    100.00% # attempts to use FU when none available (Count)
system.cpu.statFuBusy::SimdWholeRegisterStore            0      0.00%    100.00% # attempts to use FU when none available (Count)
system.cpu.statFuBusy::SimdUnitStrideFaultOnlyFirstLoad            0      0.00%    100.00% # attempts to use FU when none available (Count)
system.cpu.statFuBusy::SimdUnitStrideSegmentedLoad            0      0.00%    100.00% # attempts to use FU when none available (Count)
system.cpu.statFuBusy::SimdUnitStrideSegmentedStore            0      0.00%    100.00% # attempts to use FU when none available (Count)
system.cpu.statFuBusy::SimdExt                      0      0.00%    100.00% # attempts to use FU when none available (Count)
system.cpu.statFuBusy::SimdFloatExt                 0      0.00%    100.00% # attempts to use FU when none available (Count)
system.cpu.statFuBusy::SimdConfig                   0      0.00%    100.00% # attempts to use FU when none available (Count)
system.cpu.statIssuedInstType_0::No_OpClass      2914152      0.47%      0.47% # Number of instructions issued per FU type, per thread (Count)
system.cpu.statIssuedInstType_0::IntAlu     480808212     78.05%     78.52% # Number of instructions issued per FU type, per thread (Count)
system.cpu.statIssuedInstType_0::IntMult       842444      0.14%     78.66% # Number of instructions issued per FU type, per thread (Count)
system.cpu.statIssuedInstType_0::IntDiv       2512053      0.41%     79.07% # Number of instructions issued per FU type, per thread (Count)
system.cpu.statIssuedInstType_0::FloatAdd     11176434      1.81%     80.88% # Number of instructions issued per FU type, per thread (Count)
system.cpu.statIssuedInstType_0::FloatCmp            0      0.00%     80.88% # Number of instructions issued per FU type, per thread (Count)
system.cpu.statIssuedInstType_0::FloatCvt         1686      0.00%     80.88% # Number of instructions issued per FU type, per thread (Count)
system.cpu.statIssuedInstType_0::FloatMult            0      0.00%     80.88% # Number of instructions issued per FU type, per thread (Count)
system.cpu.statIssuedInstType_0::FloatMultAcc            0      0.00%     80.88% # Number of instructions issued per FU type, per thread (Count)
system.cpu.statIssuedInstType_0::FloatDiv            0      0.00%     80.88% # Number of instructions issued per FU type, per thread (Count)
system.cpu.statIssuedInstType_0::FloatMisc            0      0.00%     80.88% # Number of instructions issued per FU type, per thread (Count)
system.cpu.statIssuedInstType_0::FloatSqrt            0      0.00%     80.88% # Number of instructions issued per FU type, per thread (Count)
system.cpu.statIssuedInstType_0::SimdAdd         7271      0.00%     80.88% # Number of instructions issued per FU type, per thread (Count)
system.cpu.statIssuedInstType_0::SimdAddAcc            0      0.00%     80.88% # Number of instructions issued per FU type, per thread (Count)
system.cpu.statIssuedInstType_0::SimdAlu      1720433      0.28%     81.16% # Number of instructions issued per FU type, per thread (Count)
system.cpu.statIssuedInstType_0::SimdCmp           11      0.00%     81.16% # Number of instructions issued per FU type, per thread (Count)
system.cpu.statIssuedInstType_0::SimdCvt       146915      0.02%     81.19% # Number of instructions issued per FU type, per thread (Count)
system.cpu.statIssuedInstType_0::SimdMisc       736006      0.12%     81.31% # Number of instructions issued per FU type, per thread (Count)
system.cpu.statIssuedInstType_0::SimdMult            0      0.00%     81.31% # Number of instructions issued per FU type, per thread (Count)
system.cpu.statIssuedInstType_0::SimdMultAcc            0      0.00%     81.31% # Number of instructions issued per FU type, per thread (Count)
system.cpu.statIssuedInstType_0::SimdMatMultAcc            0      0.00%     81.31% # Number of instructions issued per FU type, per thread (Count)
system.cpu.statIssuedInstType_0::SimdShift         3263      0.00%     81.31% # Number of instructions issued per FU type, per thread (Count)
system.cpu.statIssuedInstType_0::SimdShiftAcc            0      0.00%     81.31% # Number of instructions issued per FU type, per thread (Count)
system.cpu.statIssuedInstType_0::SimdDiv            0      0.00%     81.31% # Number of instructions issued per FU type, per thread (Count)
system.cpu.statIssuedInstType_0::SimdSqrt            0      0.00%     81.31% # Number of instructions issued per FU type, per thread (Count)
system.cpu.statIssuedInstType_0::SimdFloatAdd        65538      0.01%     81.32% # Number of instructions issued per FU type, per thread (Count)
system.cpu.statIssuedInstType_0::SimdFloatAlu            0      0.00%     81.32% # Number of instructions issued per FU type, per thread (Count)
system.cpu.statIssuedInstType_0::SimdFloatCmp            0      0.00%     81.32% # Number of instructions issued per FU type, per thread (Count)
system.cpu.statIssuedInstType_0::SimdFloatCvt     14118168      2.29%     83.61% # Number of instructions issued per FU type, per thread (Count)
system.cpu.statIssuedInstType_0::SimdFloatDiv           15      0.00%     83.61% # Number of instructions issued per FU type, per thread (Count)
system.cpu.statIssuedInstType_0::SimdFloatMisc            0      0.00%     83.61% # Number of instructions issued per FU type, per thread (Count)
system.cpu.statIssuedInstType_0::SimdFloatMult            0      0.00%     83.61% # Number of instructions issued per FU type, per thread (Count)
system.cpu.statIssuedInstType_0::SimdFloatMultAcc            0      0.00%     83.61% # Number of instructions issued per FU type, per thread (Count)
system.cpu.statIssuedInstType_0::SimdFloatMatMultAcc            0      0.00%     83.61% # Number of instructions issued per FU type, per thread (Count)
system.cpu.statIssuedInstType_0::SimdFloatSqrt            2      0.00%     83.61% # Number of instructions issued per FU type, per thread (Count)
system.cpu.statIssuedInstType_0::SimdReduceAdd            0      0.00%     83.61% # Number of instructions issued per FU type, per thread (Count)
system.cpu.statIssuedInstType_0::SimdReduceAlu            0      0.00%     83.61% # Number of instructions issued per FU type, per thread (Count)
system.cpu.statIssuedInstType_0::SimdReduceCmp            0      0.00%     83.61% # Number of instructions issued per FU type, per thread (Count)
system.cpu.statIssuedInstType_0::SimdFloatReduceAdd            0      0.00%     83.61% # Number of instructions issued per FU type, per thread (Count)
system.cpu.statIssuedInstType_0::SimdFloatReduceCmp            0      0.00%     83.61% # Number of instructions issued per FU type, per thread (Count)
system.cpu.statIssuedInstType_0::SimdAes            0      0.00%     83.61% # Number of instructions issued per FU type, per thread (Count)
system.cpu.statIssuedInstType_0::SimdAesMix            0      0.00%     83.61% # Number of instructions issued per FU type, per thread (Count)
system.cpu.statIssuedInstType_0::SimdSha1Hash            0      0.00%     83.61% # Number of instructions issued per FU type, per thread (Count)
system.cpu.statIssuedInstType_0::SimdSha1Hash2            0      0.00%     83.61% # Number of instructions issued per FU type, per thread (Count)
system.cpu.statIssuedInstType_0::SimdSha256Hash            0      0.00%     83.61% # Number of instructions issued per FU type, per thread (Count)
system.cpu.statIssuedInstType_0::SimdSha256Hash2            0      0.00%     83.61% # Number of instructions issued per FU type, per thread (Count)
system.cpu.statIssuedInstType_0::SimdShaSigma2            0      0.00%     83.61% # Number of instructions issued per FU type, per thread (Count)
system.cpu.statIssuedInstType_0::SimdShaSigma3            0      0.00%     83.61% # Number of instructions issued per FU type, per thread (Count)
system.cpu.statIssuedInstType_0::SimdPredAlu            0      0.00%     83.61% # Number of instructions issued per FU type, per thread (Count)
system.cpu.statIssuedInstType_0::Matrix             0      0.00%     83.61% # Number of instructions issued per FU type, per thread (Count)
system.cpu.statIssuedInstType_0::MatrixMov            0      0.00%     83.61% # Number of instructions issued per FU type, per thread (Count)
system.cpu.statIssuedInstType_0::MatrixOP            0      0.00%     83.61% # Number of instructions issued per FU type, per thread (Count)
system.cpu.statIssuedInstType_0::MemRead     53743271      8.72%     92.33% # Number of instructions issued per FU type, per thread (Count)
system.cpu.statIssuedInstType_0::MemWrite     16774431      2.72%     95.06% # Number of instructions issued per FU type, per thread (Count)
system.cpu.statIssuedInstType_0::FloatMemRead     20102974      3.26%     98.32% # Number of instructions issued per FU type, per thread (Count)
system.cpu.statIssuedInstType_0::FloatMemWrite     10350568      1.68%    100.00% # Number of instructions issued per FU type, per thread (Count)
system.cpu.statIssuedInstType_0::IprAccess            0      0.00%    100.00% # Number of instructions issued per FU type, per thread (Count)
system.cpu.statIssuedInstType_0::InstPrefetch            0      0.00%    100.00% # Number of instructions issued per FU type, per thread (Count)
system.cpu.statIssuedInstType_0::SimdUnitStrideLoad            0      0.00%    100.00% # Number of instructions issued per FU type, per thread (Count)
system.cpu.statIssuedInstType_0::SimdUnitStrideStore            0      0.00%    100.00% # Number of instructions issued per FU type, per thread (Count)
system.cpu.statIssuedInstType_0::SimdUnitStrideMaskLoad            0      0.00%    100.00% # Number of instructions issued per FU type, per thread (Count)
system.cpu.statIssuedInstType_0::SimdUnitStrideMaskStore            0      0.00%    100.00% # Number of instructions issued per FU type, per thread (Count)
system.cpu.statIssuedInstType_0::SimdStridedLoad            0      0.00%    100.00% # Number of instructions issued per FU type, per thread (Count)
system.cpu.statIssuedInstType_0::SimdStridedStore            0      0.00%    100.00% # Number of instructions issued per FU type, per thread (Count)
system.cpu.statIssuedInstType_0::SimdIndexedLoad            0      0.00%    100.00% # Number of instructions issued per FU type, per thread (Count)
system.cpu.statIssuedInstType_0::SimdIndexedStore            0      0.00%    100.00% # Number of instructions issued per FU type, per thread (Count)
system.cpu.statIssuedInstType_0::SimdWholeRegisterLoad            0      0.00%    100.00% # Number of instructions issued per FU type, per thread (Count)
system.cpu.statIssuedInstType_0::SimdWholeRegisterStore            0      0.00%    100.00% # Number of instructions issued per FU type, per thread (Count)
system.cpu.statIssuedInstType_0::SimdUnitStrideFaultOnlyFirstLoad            0      0.00%    100.00% # Number of instructions issued per FU type, per thread (Count)
system.cpu.statIssuedInstType_0::SimdUnitStrideSegmentedLoad            0      0.00%    100.00% # Number of instructions issued per FU type, per thread (Count)
system.cpu.statIssuedInstType_0::SimdUnitStrideSegmentedStore            0      0.00%    100.00% # Number of instructions issued per FU type, per thread (Count)
system.cpu.statIssuedInstType_0::SimdExt            0      0.00%    100.00% # Number of instructions issued per FU type, per thread (Count)
system.cpu.statIssuedInstType_0::SimdFloatExt            0      0.00%    100.00% # Number of instructions issued per FU type, per thread (Count)
system.cpu.statIssuedInstType_0::SimdConfig            0      0.00%    100.00% # Number of instructions issued per FU type, per thread (Count)
system.cpu.statIssuedInstType_0::total      616023847                       # Number of instructions issued per FU type, per thread (Count)
system.cpu.issueRate                         2.744350                       # Inst issue rate ((Count/Cycle))
system.cpu.fuBusy                            21537618                       # FU busy when requested (Count)
system.cpu.fuBusyRate                        0.034962                       # FU busy rate (busy events/executed inst) ((Count/Count))
system.cpu.intInstQueueReads               1360916427                       # Number of integer instruction queue reads (Count)
system.cpu.intInstQueueWrites               735868906                       # Number of integer instruction queue writes (Count)
system.cpu.intInstQueueWakeupAccesses       547622024                       # Number of integer instruction queue wakeup accesses (Count)
system.cpu.fpInstQueueReads                 118726824                       # Number of floating instruction queue reads (Count)
system.cpu.fpInstQueueWrites                 95191943                       # Number of floating instruction queue writes (Count)
system.cpu.fpInstQueueWakeupAccesses         54018809                       # Number of floating instruction queue wakeup accesses (Count)
system.cpu.vecInstQueueReads                        0                       # Number of vector instruction queue reads (Count)
system.cpu.vecInstQueueWrites                       0                       # Number of vector instruction queue writes (Count)
system.cpu.vecInstQueueWakeupAccesses               0                       # Number of vector instruction queue wakeup accesses (Count)
system.cpu.intAluAccesses                   574650611                       # Number of integer alu accesses (Count)
system.cpu.fpAluAccesses                     59996702                       # Number of floating point alu accesses (Count)
system.cpu.vecAluAccesses                           0                       # Number of vector alu accesses (Count)
system.cpu.numSquashedInsts                   9137994                       # Number of squashed instructions skipped in execute (Count)
system.cpu.numSwp                                   0                       # Number of swp insts executed (Count)
system.cpu.timesIdled                          184204                       # Number of times that the entire CPU went into an idle state and unscheduled itself (Count)
system.cpu.idleCycles                         1368325                       # Total number of cycles that the CPU has spent unscheduled due to idling (Cycle)
system.cpu.MemDepUnit__0.insertedLoads       80304382                       # Number of loads inserted to the mem dependence unit. (Count)
system.cpu.MemDepUnit__0.insertedStores      33551942                       # Number of stores inserted to the mem dependence unit. (Count)
system.cpu.MemDepUnit__0.conflictingLoads      8525047                       # Number of conflicting loads. (Count)
system.cpu.MemDepUnit__0.conflictingStores      7428563                       # Number of conflicting stores. (Count)
system.cpu.MemDepUnit__1.insertedLoads              0                       # Number of loads inserted to the mem dependence unit. (Count)
system.cpu.MemDepUnit__1.insertedStores             0                       # Number of stores inserted to the mem dependence unit. (Count)
system.cpu.MemDepUnit__1.conflictingLoads            0                       # Number of conflicting loads. (Count)
system.cpu.MemDepUnit__1.conflictingStores            0                       # Number of conflicting stores. (Count)
system.cpu.MemDepUnit__2.insertedLoads              0                       # Number of loads inserted to the mem dependence unit. (Count)
system.cpu.MemDepUnit__2.insertedStores             0                       # Number of stores inserted to the mem dependence unit. (Count)
system.cpu.MemDepUnit__2.conflictingLoads            0                       # Number of conflicting loads. (Count)
system.cpu.MemDepUnit__2.conflictingStores            0                       # Number of conflicting stores. (Count)
system.cpu.MemDepUnit__3.insertedLoads              0                       # Number of loads inserted to the mem dependence unit. (Count)
system.cpu.MemDepUnit__3.insertedStores             0                       # Number of stores inserted to the mem dependence unit. (Count)
system.cpu.MemDepUnit__3.conflictingLoads            0                       # Number of conflicting loads. (Count)
system.cpu.MemDepUnit__3.conflictingStores            0                       # Number of conflicting stores. (Count)
system.cpu.branchPred.lookups_0::NoBranch         2040      0.00%      0.00% # Number of BP lookups (Count)
system.cpu.branchPred.lookups_0::Return        937419      0.89%      0.89% # Number of BP lookups (Count)
system.cpu.branchPred.lookups_0::CallDirect       922184      0.88%      1.77% # Number of BP lookups (Count)
system.cpu.branchPred.lookups_0::CallIndirect         1348      0.00%      1.77% # Number of BP lookups (Count)
system.cpu.branchPred.lookups_0::DirectCond     92734732     88.23%     90.00% # Number of BP lookups (Count)
system.cpu.branchPred.lookups_0::DirectUncond      9998470      9.51%     99.51% # Number of BP lookups (Count)
system.cpu.branchPred.lookups_0::IndirectCond            0      0.00%     99.51% # Number of BP lookups (Count)
system.cpu.branchPred.lookups_0::IndirectUncond       515396      0.49%    100.00% # Number of BP lookups (Count)
system.cpu.branchPred.lookups_0::total      105111589                       # Number of BP lookups (Count)
system.cpu.branchPred.squashes_0::NoBranch         1806      0.00%      0.00% # Number of branches that got squashed (completely removed) as an earlier branch was mispredicted. (Count)
system.cpu.branchPred.squashes_0::Return        78070      0.21%      0.22% # Number of branches that got squashed (completely removed) as an earlier branch was mispredicted. (Count)
system.cpu.branchPred.squashes_0::CallDirect        63452      0.17%      0.39% # Number of branches that got squashed (completely removed) as an earlier branch was mispredicted. (Count)
system.cpu.branchPred.squashes_0::CallIndirect          726      0.00%      0.40% # Number of branches that got squashed (completely removed) as an earlier branch was mispredicted. (Count)
system.cpu.branchPred.squashes_0::DirectCond     32160208     88.33%     88.73% # Number of branches that got squashed (completely removed) as an earlier branch was mispredicted. (Count)
system.cpu.branchPred.squashes_0::DirectUncond      4096282     11.25%     99.98% # Number of branches that got squashed (completely removed) as an earlier branch was mispredicted. (Count)
system.cpu.branchPred.squashes_0::IndirectCond            0      0.00%     99.98% # Number of branches that got squashed (completely removed) as an earlier branch was mispredicted. (Count)
system.cpu.branchPred.squashes_0::IndirectUncond         7777      0.02%    100.00% # Number of branches that got squashed (completely removed) as an earlier branch was mispredicted. (Count)
system.cpu.branchPred.squashes_0::total      36408321                       # Number of branches that got squashed (completely removed) as an earlier branch was mispredicted. (Count)
system.cpu.branchPred.corrected_0::NoBranch          382      0.01%      0.01% # Number of branches that got corrected but not yet commited. Branches get corrected by decode or after execute. Also a branch misprediction can be detected out-of-order. Therefore, a corrected branch might not end up beeing committed in case an even earlier branch was mispredicted (Count)
system.cpu.branchPred.corrected_0::Return           24      0.00%      0.01% # Number of branches that got corrected but not yet commited. Branches get corrected by decode or after execute. Also a branch misprediction can be detected out-of-order. Therefore, a corrected branch might not end up beeing committed in case an even earlier branch was mispredicted (Count)
system.cpu.branchPred.corrected_0::CallDirect         1094      0.04%      0.05% # Number of branches that got corrected but not yet commited. Branches get corrected by decode or after execute. Also a branch misprediction can be detected out-of-order. Therefore, a corrected branch might not end up beeing committed in case an even earlier branch was mispredicted (Count)
system.cpu.branchPred.corrected_0::CallIndirect          254      0.01%      0.06% # Number of branches that got corrected but not yet commited. Branches get corrected by decode or after execute. Also a branch misprediction can be detected out-of-order. Therefore, a corrected branch might not end up beeing committed in case an even earlier branch was mispredicted (Count)
system.cpu.branchPred.corrected_0::DirectCond      3076929     99.87%     99.93% # Number of branches that got corrected but not yet commited. Branches get corrected by decode or after execute. Also a branch misprediction can be detected out-of-order. Therefore, a corrected branch might not end up beeing committed in case an even earlier branch was mispredicted (Count)
system.cpu.branchPred.corrected_0::DirectUncond          766      0.02%     99.96% # Number of branches that got corrected but not yet commited. Branches get corrected by decode or after execute. Also a branch misprediction can be detected out-of-order. Therefore, a corrected branch might not end up beeing committed in case an even earlier branch was mispredicted (Count)
system.cpu.branchPred.corrected_0::IndirectCond            0      0.00%     99.96% # Number of branches that got corrected but not yet commited. Branches get corrected by decode or after execute. Also a branch misprediction can be detected out-of-order. Therefore, a corrected branch might not end up beeing committed in case an even earlier branch was mispredicted (Count)
system.cpu.branchPred.corrected_0::IndirectUncond         1364      0.04%    100.00% # Number of branches that got corrected but not yet commited. Branches get corrected by decode or after execute. Also a branch misprediction can be detected out-of-order. Therefore, a corrected branch might not end up beeing committed in case an even earlier branch was mispredicted (Count)
system.cpu.branchPred.corrected_0::total      3080813                       # Number of branches that got corrected but not yet commited. Branches get corrected by decode or after execute. Also a branch misprediction can be detected out-of-order. Therefore, a corrected branch might not end up beeing committed in case an even earlier branch was mispredicted (Count)
system.cpu.branchPred.earlyResteers_0::NoBranch            0                       # Number of branches that got redirected after decode. (Count)
system.cpu.branchPred.earlyResteers_0::Return            0                       # Number of branches that got redirected after decode. (Count)
system.cpu.branchPred.earlyResteers_0::CallDirect            0                       # Number of branches that got redirected after decode. (Count)
system.cpu.branchPred.earlyResteers_0::CallIndirect            0                       # Number of branches that got redirected after decode. (Count)
system.cpu.branchPred.earlyResteers_0::DirectCond            0                       # Number of branches that got redirected after decode. (Count)
system.cpu.branchPred.earlyResteers_0::DirectUncond            0                       # Number of branches that got redirected after decode. (Count)
system.cpu.branchPred.earlyResteers_0::IndirectCond            0                       # Number of branches that got redirected after decode. (Count)
system.cpu.branchPred.earlyResteers_0::IndirectUncond            0                       # Number of branches that got redirected after decode. (Count)
system.cpu.branchPred.earlyResteers_0::total            0                       # Number of branches that got redirected after decode. (Count)
system.cpu.branchPred.committed_0::NoBranch          234      0.00%      0.00% # Number of branches finally committed  (Count)
system.cpu.branchPred.committed_0::Return       859348      1.25%      1.25% # Number of branches finally committed  (Count)
system.cpu.branchPred.committed_0::CallDirect       858731      1.25%      2.50% # Number of branches finally committed  (Count)
system.cpu.branchPred.committed_0::CallIndirect          622      0.00%      2.50% # Number of branches finally committed  (Count)
system.cpu.branchPred.committed_0::DirectCond     60574524     88.17%     90.67% # Number of branches finally committed  (Count)
system.cpu.branchPred.committed_0::DirectUncond      5902188      8.59%     99.26% # Number of branches finally committed  (Count)
system.cpu.branchPred.committed_0::IndirectCond            0      0.00%     99.26% # Number of branches finally committed  (Count)
system.cpu.branchPred.committed_0::IndirectUncond       507619      0.74%    100.00% # Number of branches finally committed  (Count)
system.cpu.branchPred.committed_0::total     68703266                       # Number of branches finally committed  (Count)
system.cpu.branchPred.mispredicted_0::NoBranch          234      0.01%      0.01% # Number of committed branches that were mispredicted. (Count)
system.cpu.branchPred.mispredicted_0::Return            8      0.00%      0.01% # Number of committed branches that were mispredicted. (Count)
system.cpu.branchPred.mispredicted_0::CallDirect          589      0.02%      0.03% # Number of committed branches that were mispredicted. (Count)
system.cpu.branchPred.mispredicted_0::CallIndirect          227      0.01%      0.04% # Number of committed branches that were mispredicted. (Count)
system.cpu.branchPred.mispredicted_0::DirectCond      2938713     99.91%     99.94% # Number of committed branches that were mispredicted. (Count)
system.cpu.branchPred.mispredicted_0::DirectUncond          430      0.01%     99.96% # Number of committed branches that were mispredicted. (Count)
system.cpu.branchPred.mispredicted_0::IndirectCond            0      0.00%     99.96% # Number of committed branches that were mispredicted. (Count)
system.cpu.branchPred.mispredicted_0::IndirectUncond         1279      0.04%    100.00% # Number of committed branches that were mispredicted. (Count)
system.cpu.branchPred.mispredicted_0::total      2941480                       # Number of committed branches that were mispredicted. (Count)
system.cpu.branchPred.targetProvider_0::NoTarget     50670947     48.21%     48.21% # The component providing the target for taken branches (Count)
system.cpu.branchPred.targetProvider_0::BTB     52995041     50.42%     98.62% # The component providing the target for taken branches (Count)
system.cpu.branchPred.targetProvider_0::RAS       937418      0.89%     99.52% # The component providing the target for taken branches (Count)
system.cpu.branchPred.targetProvider_0::Indirect       508183      0.48%    100.00% # The component providing the target for taken branches (Count)
system.cpu.branchPred.targetProvider_0::total    105111589                       # The component providing the target for taken branches (Count)
system.cpu.branchPred.targetWrong_0::NoBranch      1456654     48.30%     48.30% # Number of branches where the target was incorrect or not available at prediction time. (Count)
system.cpu.branchPred.targetWrong_0::Return      1558920     51.69%     99.99% # Number of branches where the target was incorrect or not available at prediction time. (Count)
system.cpu.branchPred.targetWrong_0::CallDirect           24      0.00%     99.99% # Number of branches where the target was incorrect or not available at prediction time. (Count)
system.cpu.branchPred.targetWrong_0::CallIndirect          154      0.01%    100.00% # Number of branches where the target was incorrect or not available at prediction time. (Count)
system.cpu.branchPred.targetWrong_0::DirectCond            0      0.00%    100.00% # Number of branches where the target was incorrect or not available at prediction time. (Count)
system.cpu.branchPred.targetWrong_0::DirectUncond            0      0.00%    100.00% # Number of branches where the target was incorrect or not available at prediction time. (Count)
system.cpu.branchPred.targetWrong_0::IndirectCond            0      0.00%    100.00% # Number of branches where the target was incorrect or not available at prediction time. (Count)
system.cpu.branchPred.targetWrong_0::IndirectUncond            0      0.00%    100.00% # Number of branches where the target was incorrect or not available at prediction time. (Count)
system.cpu.branchPred.targetWrong_0::total      3015752                       # Number of branches where the target was incorrect or not available at prediction time. (Count)
system.cpu.branchPred.condPredicted          92736772                       # Number of conditional branches predicted (Count)
system.cpu.branchPred.condPredictedTaken     42082002                       # Number of conditional branches predicted as taken (Count)
system.cpu.branchPred.condIncorrect           3080813                       # Number of conditional branches incorrect (Count)
system.cpu.branchPred.predTakenBTBMiss           2208                       # Number of branches predicted taken but missed in BTB (Count)
system.cpu.branchPred.NotTakenMispredicted      1462729                       # Number branches predicted 'not taken' but turned out to be taken (Count)
system.cpu.branchPred.TakenMispredicted       1618084                       # Number branches predicted taken but are actually not taken (Count)
system.cpu.branchPred.BTBLookups            105111589                       # Number of BTB lookups (Count)
system.cpu.branchPred.BTBUpdates              1460705                       # Number of BTB updates (Count)
system.cpu.branchPred.BTBHits                79983422                       # Number of BTB hits (Count)
system.cpu.branchPred.BTBHitRatio            0.760938                       # BTB Hit Ratio (Ratio)
system.cpu.branchPred.BTBMispredicted            3262                       # Number BTB mispredictions. No target found or target wrong (Count)
system.cpu.branchPred.indirectLookups          516744                       # Number of indirect predictor lookups. (Count)
system.cpu.branchPred.indirectHits             508183                       # Number of indirect target hits. (Count)
system.cpu.branchPred.indirectMisses             8561                       # Number of indirect misses. (Count)
system.cpu.branchPred.indirectMispredicted            0                       # Number of mispredicted indirect branches. (Count)
system.cpu.branchPred.btb.lookups::NoBranch         2040      0.00%      0.00% # Number of BTB lookups (Count)
system.cpu.branchPred.btb.lookups::Return       937419      0.89%      0.89% # Number of BTB lookups (Count)
system.cpu.branchPred.btb.lookups::CallDirect       922184      0.88%      1.77% # Number of BTB lookups (Count)
system.cpu.branchPred.btb.lookups::CallIndirect         1348      0.00%      1.77% # Number of BTB lookups (Count)
system.cpu.branchPred.btb.lookups::DirectCond     92734732     88.23%     90.00% # Number of BTB lookups (Count)
system.cpu.branchPred.btb.lookups::DirectUncond      9998470      9.51%     99.51% # Number of BTB lookups (Count)
system.cpu.branchPred.btb.lookups::IndirectCond            0      0.00%     99.51% # Number of BTB lookups (Count)
system.cpu.branchPred.btb.lookups::IndirectUncond       515396      0.49%    100.00% # Number of BTB lookups (Count)
system.cpu.branchPred.btb.lookups::total    105111589                       # Number of BTB lookups (Count)
system.cpu.branchPred.btb.misses::NoBranch          382      0.00%      0.00% # Number of BTB misses (Count)
system.cpu.branchPred.btb.misses::Return       937419      3.73%      3.73% # Number of BTB misses (Count)
system.cpu.branchPred.btb.misses::CallDirect         1561      0.01%      3.74% # Number of BTB misses (Count)
system.cpu.branchPred.btb.misses::CallIndirect         1348      0.01%      3.74% # Number of BTB misses (Count)
system.cpu.branchPred.btb.misses::DirectCond     23670906     94.20%     97.94% # Number of BTB misses (Count)
system.cpu.branchPred.btb.misses::DirectUncond         1155      0.00%     97.95% # Number of BTB misses (Count)
system.cpu.branchPred.btb.misses::IndirectCond            0      0.00%     97.95% # Number of BTB misses (Count)
system.cpu.branchPred.btb.misses::IndirectUncond       515396      2.05%    100.00% # Number of BTB misses (Count)
system.cpu.branchPred.btb.misses::total      25128167                       # Number of BTB misses (Count)
system.cpu.branchPred.btb.updates::NoBranch            0      0.00%      0.00% # Number of BTB updates (Count)
system.cpu.branchPred.btb.updates::Return            0      0.00%      0.00% # Number of BTB updates (Count)
system.cpu.branchPred.btb.updates::CallDirect         1094      0.07%      0.07% # Number of BTB updates (Count)
system.cpu.branchPred.btb.updates::CallIndirect            0      0.00%      0.07% # Number of BTB updates (Count)
system.cpu.branchPred.btb.updates::DirectCond      1458845     99.87%     99.95% # Number of BTB updates (Count)
system.cpu.branchPred.btb.updates::DirectUncond          766      0.05%    100.00% # Number of BTB updates (Count)
system.cpu.branchPred.btb.updates::IndirectCond            0      0.00%    100.00% # Number of BTB updates (Count)
system.cpu.branchPred.btb.updates::IndirectUncond            0      0.00%    100.00% # Number of BTB updates (Count)
system.cpu.branchPred.btb.updates::total      1460705                       # Number of BTB updates (Count)
system.cpu.branchPred.btb.mispredict::NoBranch            0      0.00%      0.00% # Number of BTB mispredictions. No target found or target wrong. (Count)
system.cpu.branchPred.btb.mispredict::Return            0      0.00%      0.00% # Number of BTB mispredictions. No target found or target wrong. (Count)
system.cpu.branchPred.btb.mispredict::CallDirect         1094      0.07%      0.07% # Number of BTB mispredictions. No target found or target wrong. (Count)
system.cpu.branchPred.btb.mispredict::CallIndirect            0      0.00%      0.07% # Number of BTB mispredictions. No target found or target wrong. (Count)
system.cpu.branchPred.btb.mispredict::DirectCond      1458845     99.87%     99.95% # Number of BTB mispredictions. No target found or target wrong. (Count)
system.cpu.branchPred.btb.mispredict::DirectUncond          766      0.05%    100.00% # Number of BTB mispredictions. No target found or target wrong. (Count)
system.cpu.branchPred.btb.mispredict::IndirectCond            0      0.00%    100.00% # Number of BTB mispredictions. No target found or target wrong. (Count)
system.cpu.branchPred.btb.mispredict::IndirectUncond            0      0.00%    100.00% # Number of BTB mispredictions. No target found or target wrong. (Count)
system.cpu.branchPred.btb.mispredict::total      1460705                       # Number of BTB mispredictions. No target found or target wrong. (Count)
system.cpu.branchPred.btb.power_state.pwrStateResidencyTicks::UNDEFINED 2992856216724                       # Cumulative time (in ticks) in various power states (Tick)
system.cpu.branchPred.indirectBranchPred.lookups       516744                       # Number of lookups (Count)
system.cpu.branchPred.indirectBranchPred.hits       508183                       # Number of hits of a tag (Count)
system.cpu.branchPred.indirectBranchPred.misses         8561                       # Number of misses (Count)
system.cpu.branchPred.indirectBranchPred.targetRecords         1618                       # Number of targets that where recorded/installed in the cache (Count)
system.cpu.branchPred.indirectBranchPred.indirectRecords       518362                       # Number of indirect branches/calls recorded in the indirect hist (Count)
system.cpu.branchPred.indirectBranchPred.speculativeOverflows            1                       # Number of times more than the allowed capacity for speculative branches/calls where in flight and destroy the path history (Count)
system.cpu.branchPred.ras.pushes              1001602                       # Number of times a PC was pushed onto the RAS (Count)
system.cpu.branchPred.ras.pops                1001597                       # Number of times a PC was poped from the RAS (Count)
system.cpu.branchPred.ras.squashes             142248                       # Number of times the stack operation was squashed due to wrong speculation. (Count)
system.cpu.branchPred.ras.used                 859348                       # Number of times the RAS is the provider (Count)
system.cpu.branchPred.ras.correct              859340                       # Number of times the RAS is the provider and the prediction is correct (Count)
system.cpu.branchPred.ras.incorrect                 8                       # Number of times the RAS is the provider and the prediction is wrong (Count)
system.cpu.commit.commitSquashedInsts       164599664                       # The number of squashed insts skipped by commit (Count)
system.cpu.commit.commitNonSpecStalls            3048                       # The number of times commit has been forced to stall to communicate backwards (Count)
system.cpu.commit.branchMispredicts           3078994                       # The number of times a branch was mispredicted (Count)
system.cpu.commit.numCommittedDist::samples    200378778                       # Number of insts commited each cycle (Count)
system.cpu.commit.numCommittedDist::mean     2.503321                       # Number of insts commited each cycle (Count)
system.cpu.commit.numCommittedDist::stdev     2.983943                       # Number of insts commited each cycle (Count)
system.cpu.commit.numCommittedDist::underflows            0      0.00%      0.00% # Number of insts commited each cycle (Count)
system.cpu.commit.numCommittedDist::0        87967229     43.90%     43.90% # Number of insts commited each cycle (Count)
system.cpu.commit.numCommittedDist::1        20814488     10.39%     54.29% # Number of insts commited each cycle (Count)
system.cpu.commit.numCommittedDist::2        11114639      5.55%     59.83% # Number of insts commited each cycle (Count)
system.cpu.commit.numCommittedDist::3        21363991     10.66%     70.50% # Number of insts commited each cycle (Count)
system.cpu.commit.numCommittedDist::4        10075971      5.03%     75.53% # Number of insts commited each cycle (Count)
system.cpu.commit.numCommittedDist::5         6848918      3.42%     78.94% # Number of insts commited each cycle (Count)
system.cpu.commit.numCommittedDist::6         6890827      3.44%     82.38% # Number of insts commited each cycle (Count)
system.cpu.commit.numCommittedDist::7         3838545      1.92%     84.30% # Number of insts commited each cycle (Count)
system.cpu.commit.numCommittedDist::8        31464170     15.70%    100.00% # Number of insts commited each cycle (Count)
system.cpu.commit.numCommittedDist::overflows            0      0.00%    100.00% # Number of insts commited each cycle (Count)
system.cpu.commit.numCommittedDist::min_value            0                       # Number of insts commited each cycle (Count)
system.cpu.commit.numCommittedDist::max_value            8                       # Number of insts commited each cycle (Count)
system.cpu.commit.numCommittedDist::total    200378778                       # Number of insts commited each cycle (Count)
system.cpu.commit.amos                              0                       # Number of atomic instructions committed (Count)
system.cpu.commit.membars                        1388                       # Number of memory barriers committed (Count)
system.cpu.commit.functionCalls                859353                       # Number of function calls committed. (Count)
system.cpu.commit.committedInstType_0::No_OpClass      2216270      0.44%      0.44% # Class of committed instruction (Count)
system.cpu.commit.committedInstType_0::IntAlu    398331159     79.41%     79.85% # Class of committed instruction (Count)
system.cpu.commit.committedInstType_0::IntMult       798339      0.16%     80.01% # Class of committed instruction (Count)
system.cpu.commit.committedInstType_0::IntDiv      2332042      0.46%     80.48% # Class of committed instruction (Count)
system.cpu.commit.committedInstType_0::FloatAdd      6457681      1.29%     81.76% # Class of committed instruction (Count)
system.cpu.commit.committedInstType_0::FloatCmp            0      0.00%     81.76% # Class of committed instruction (Count)
system.cpu.commit.committedInstType_0::FloatCvt         1632      0.00%     81.76% # Class of committed instruction (Count)
system.cpu.commit.committedInstType_0::FloatMult            0      0.00%     81.76% # Class of committed instruction (Count)
system.cpu.commit.committedInstType_0::FloatMultAcc            0      0.00%     81.76% # Class of committed instruction (Count)
system.cpu.commit.committedInstType_0::FloatDiv            0      0.00%     81.76% # Class of committed instruction (Count)
system.cpu.commit.committedInstType_0::FloatMisc            0      0.00%     81.76% # Class of committed instruction (Count)
system.cpu.commit.committedInstType_0::FloatSqrt            0      0.00%     81.76% # Class of committed instruction (Count)
system.cpu.commit.committedInstType_0::SimdAdd         6536      0.00%     81.77% # Class of committed instruction (Count)
system.cpu.commit.committedInstType_0::SimdAddAcc            0      0.00%     81.77% # Class of committed instruction (Count)
system.cpu.commit.committedInstType_0::SimdAlu      1717228      0.34%     82.11% # Class of committed instruction (Count)
system.cpu.commit.committedInstType_0::SimdCmp            6      0.00%     82.11% # Class of committed instruction (Count)
system.cpu.commit.committedInstType_0::SimdCvt       144686      0.03%     82.14% # Class of committed instruction (Count)
system.cpu.commit.committedInstType_0::SimdMisc       734672      0.15%     82.28% # Class of committed instruction (Count)
system.cpu.commit.committedInstType_0::SimdMult            0      0.00%     82.28% # Class of committed instruction (Count)
system.cpu.commit.committedInstType_0::SimdMultAcc            0      0.00%     82.28% # Class of committed instruction (Count)
system.cpu.commit.committedInstType_0::SimdMatMultAcc            0      0.00%     82.28% # Class of committed instruction (Count)
system.cpu.commit.committedInstType_0::SimdShift         1560      0.00%     82.28% # Class of committed instruction (Count)
system.cpu.commit.committedInstType_0::SimdShiftAcc            0      0.00%     82.28% # Class of committed instruction (Count)
system.cpu.commit.committedInstType_0::SimdDiv            0      0.00%     82.28% # Class of committed instruction (Count)
system.cpu.commit.committedInstType_0::SimdSqrt            0      0.00%     82.28% # Class of committed instruction (Count)
system.cpu.commit.committedInstType_0::SimdFloatAdd        65533      0.01%     82.30% # Class of committed instruction (Count)
system.cpu.commit.committedInstType_0::SimdFloatAlu            0      0.00%     82.30% # Class of committed instruction (Count)
system.cpu.commit.committedInstType_0::SimdFloatCmp            0      0.00%     82.30% # Class of committed instruction (Count)
system.cpu.commit.committedInstType_0::SimdFloatCvt     10480972      2.09%     84.39% # Class of committed instruction (Count)
system.cpu.commit.committedInstType_0::SimdFloatDiv           10      0.00%     84.39% # Class of committed instruction (Count)
system.cpu.commit.committedInstType_0::SimdFloatMisc            0      0.00%     84.39% # Class of committed instruction (Count)
system.cpu.commit.committedInstType_0::SimdFloatMult            0      0.00%     84.39% # Class of committed instruction (Count)
system.cpu.commit.committedInstType_0::SimdFloatMultAcc            0      0.00%     84.39% # Class of committed instruction (Count)
system.cpu.commit.committedInstType_0::SimdFloatMatMultAcc            0      0.00%     84.39% # Class of committed instruction (Count)
system.cpu.commit.committedInstType_0::SimdFloatSqrt            2      0.00%     84.39% # Class of committed instruction (Count)
system.cpu.commit.committedInstType_0::SimdReduceAdd            0      0.00%     84.39% # Class of committed instruction (Count)
system.cpu.commit.committedInstType_0::SimdReduceAlu            0      0.00%     84.39% # Class of committed instruction (Count)
system.cpu.commit.committedInstType_0::SimdReduceCmp            0      0.00%     84.39% # Class of committed instruction (Count)
system.cpu.commit.committedInstType_0::SimdFloatReduceAdd            0      0.00%     84.39% # Class of committed instruction (Count)
system.cpu.commit.committedInstType_0::SimdFloatReduceCmp            0      0.00%     84.39% # Class of committed instruction (Count)
system.cpu.commit.committedInstType_0::SimdAes            0      0.00%     84.39% # Class of committed instruction (Count)
system.cpu.commit.committedInstType_0::SimdAesMix            0      0.00%     84.39% # Class of committed instruction (Count)
system.cpu.commit.committedInstType_0::SimdSha1Hash            0      0.00%     84.39% # Class of committed instruction (Count)
system.cpu.commit.committedInstType_0::SimdSha1Hash2            0      0.00%     84.39% # Class of committed instruction (Count)
system.cpu.commit.committedInstType_0::SimdSha256Hash            0      0.00%     84.39% # Class of committed instruction (Count)
system.cpu.commit.committedInstType_0::SimdSha256Hash2            0      0.00%     84.39% # Class of committed instruction (Count)
system.cpu.commit.committedInstType_0::SimdShaSigma2            0      0.00%     84.39% # Class of committed instruction (Count)
system.cpu.commit.committedInstType_0::SimdShaSigma3            0      0.00%     84.39% # Class of committed instruction (Count)
system.cpu.commit.committedInstType_0::SimdPredAlu            0      0.00%     84.39% # Class of committed instruction (Count)
system.cpu.commit.committedInstType_0::Matrix            0      0.00%     84.39% # Class of committed instruction (Count)
system.cpu.commit.committedInstType_0::MatrixMov            0      0.00%     84.39% # Class of committed instruction (Count)
system.cpu.commit.committedInstType_0::MatrixOP            0      0.00%     84.39% # Class of committed instruction (Count)
system.cpu.commit.committedInstType_0::MemRead     43403868      8.65%     93.04% # Class of committed instruction (Count)
system.cpu.commit.committedInstType_0::MemWrite     15133280      3.02%     96.06% # Class of committed instruction (Count)
system.cpu.commit.committedInstType_0::FloatMemRead     12057330      2.40%     98.46% # Class of committed instruction (Count)
system.cpu.commit.committedInstType_0::FloatMemWrite      7729544      1.54%    100.00% # Class of committed instruction (Count)
system.cpu.commit.committedInstType_0::IprAccess            0      0.00%    100.00% # Class of committed instruction (Count)
system.cpu.commit.committedInstType_0::InstPrefetch            0      0.00%    100.00% # Class of committed instruction (Count)
system.cpu.commit.committedInstType_0::SimdUnitStrideLoad            0      0.00%    100.00% # Class of committed instruction (Count)
system.cpu.commit.committedInstType_0::SimdUnitStrideStore            0      0.00%    100.00% # Class of committed instruction (Count)
system.cpu.commit.committedInstType_0::SimdUnitStrideMaskLoad            0      0.00%    100.00% # Class of committed instruction (Count)
system.cpu.commit.committedInstType_0::SimdUnitStrideMaskStore            0      0.00%    100.00% # Class of committed instruction (Count)
system.cpu.commit.committedInstType_0::SimdStridedLoad            0      0.00%    100.00% # Class of committed instruction (Count)
system.cpu.commit.committedInstType_0::SimdStridedStore            0      0.00%    100.00% # Class of committed instruction (Count)
system.cpu.commit.committedInstType_0::SimdIndexedLoad            0      0.00%    100.00% # Class of committed instruction (Count)
system.cpu.commit.committedInstType_0::SimdIndexedStore            0      0.00%    100.00% # Class of committed instruction (Count)
system.cpu.commit.committedInstType_0::SimdWholeRegisterLoad            0      0.00%    100.00% # Class of committed instruction (Count)
system.cpu.commit.committedInstType_0::SimdWholeRegisterStore            0      0.00%    100.00% # Class of committed instruction (Count)
system.cpu.commit.committedInstType_0::SimdUnitStrideFaultOnlyFirstLoad            0      0.00%    100.00% # Class of committed instruction (Count)
system.cpu.commit.committedInstType_0::SimdUnitStrideSegmentedLoad            0      0.00%    100.00% # Class of committed instruction (Count)
system.cpu.commit.committedInstType_0::SimdUnitStrideSegmentedStore            0      0.00%    100.00% # Class of committed instruction (Count)
system.cpu.commit.committedInstType_0::SimdExt            0      0.00%    100.00% # Class of committed instruction (Count)
system.cpu.commit.committedInstType_0::SimdFloatExt            0      0.00%    100.00% # Class of committed instruction (Count)
system.cpu.commit.committedInstType_0::SimdConfig            0      0.00%    100.00% # Class of committed instruction (Count)
system.cpu.commit.committedInstType_0::total    501612350                       # Class of committed instruction (Count)
system.cpu.commit.commitEligibleSamples      31464170                       # number cycles where commit BW limit reached (Cycle)
system.cpu.commitStats0.numInsts            265600347                       # Number of instructions committed (thread level) (Count)
system.cpu.commitStats0.numOps              501612350                       # Number of ops (including micro ops) committed (thread level) (Count)
system.cpu.commitStats0.numInstsNotNOP      265600347                       # Number of instructions committed excluding NOPs or prefetches (Count)
system.cpu.commitStats0.numOpsNotNOP        501612350                       # Number of Ops (including micro ops) Simulated (Count)
system.cpu.commitStats0.cpi                  0.845141                       # CPI: cycles per instruction (thread level) ((Cycle/Count))
system.cpu.commitStats0.ipc                  1.183234                       # IPC: instructions per cycle (thread level) ((Count/Cycle))
system.cpu.commitStats0.numMemRefs           78324022                       # Number of memory references committed (Count)
system.cpu.commitStats0.numFpInsts           39401321                       # Number of float instructions (Count)
system.cpu.commitStats0.numIntInsts         479521672                       # Number of integer instructions (Count)
system.cpu.commitStats0.numLoadInsts         55461198                       # Number of load instructions (Count)
system.cpu.commitStats0.numStoreInsts        22862824                       # Number of store instructions (Count)
system.cpu.commitStats0.numVecInsts                 0                       # Number of vector instructions (Count)
system.cpu.commitStats0.committedInstType::No_OpClass      2216270      0.44%      0.44% # Class of committed instruction. (Count)
system.cpu.commitStats0.committedInstType::IntAlu    398331159     79.41%     79.85% # Class of committed instruction. (Count)
system.cpu.commitStats0.committedInstType::IntMult       798339      0.16%     80.01% # Class of committed instruction. (Count)
system.cpu.commitStats0.committedInstType::IntDiv      2332042      0.46%     80.48% # Class of committed instruction. (Count)
system.cpu.commitStats0.committedInstType::FloatAdd      6457681      1.29%     81.76% # Class of committed instruction. (Count)
system.cpu.commitStats0.committedInstType::FloatCmp            0      0.00%     81.76% # Class of committed instruction. (Count)
system.cpu.commitStats0.committedInstType::FloatCvt         1632      0.00%     81.76% # Class of committed instruction. (Count)
system.cpu.commitStats0.committedInstType::FloatMult            0      0.00%     81.76% # Class of committed instruction. (Count)
system.cpu.commitStats0.committedInstType::FloatMultAcc            0      0.00%     81.76% # Class of committed instruction. (Count)
system.cpu.commitStats0.committedInstType::FloatDiv            0      0.00%     81.76% # Class of committed instruction. (Count)
system.cpu.commitStats0.committedInstType::FloatMisc            0      0.00%     81.76% # Class of committed instruction. (Count)
system.cpu.commitStats0.committedInstType::FloatSqrt            0      0.00%     81.76% # Class of committed instruction. (Count)
system.cpu.commitStats0.committedInstType::SimdAdd         6536      0.00%     81.77% # Class of committed instruction. (Count)
system.cpu.commitStats0.committedInstType::SimdAddAcc            0      0.00%     81.77% # Class of committed instruction. (Count)
system.cpu.commitStats0.committedInstType::SimdAlu      1717228      0.34%     82.11% # Class of committed instruction. (Count)
system.cpu.commitStats0.committedInstType::SimdCmp            6      0.00%     82.11% # Class of committed instruction. (Count)
system.cpu.commitStats0.committedInstType::SimdCvt       144686      0.03%     82.14% # Class of committed instruction. (Count)
system.cpu.commitStats0.committedInstType::SimdMisc       734672      0.15%     82.28% # Class of committed instruction. (Count)
system.cpu.commitStats0.committedInstType::SimdMult            0      0.00%     82.28% # Class of committed instruction. (Count)
system.cpu.commitStats0.committedInstType::SimdMultAcc            0      0.00%     82.28% # Class of committed instruction. (Count)
system.cpu.commitStats0.committedInstType::SimdMatMultAcc            0      0.00%     82.28% # Class of committed instruction. (Count)
system.cpu.commitStats0.committedInstType::SimdShift         1560      0.00%     82.28% # Class of committed instruction. (Count)
system.cpu.commitStats0.committedInstType::SimdShiftAcc            0      0.00%     82.28% # Class of committed instruction. (Count)
system.cpu.commitStats0.committedInstType::SimdDiv            0      0.00%     82.28% # Class of committed instruction. (Count)
system.cpu.commitStats0.committedInstType::SimdSqrt            0      0.00%     82.28% # Class of committed instruction. (Count)
system.cpu.commitStats0.committedInstType::SimdFloatAdd        65533      0.01%     82.30% # Class of committed instruction. (Count)
system.cpu.commitStats0.committedInstType::SimdFloatAlu            0      0.00%     82.30% # Class of committed instruction. (Count)
system.cpu.commitStats0.committedInstType::SimdFloatCmp            0      0.00%     82.30% # Class of committed instruction. (Count)
system.cpu.commitStats0.committedInstType::SimdFloatCvt     10480972      2.09%     84.39% # Class of committed instruction. (Count)
system.cpu.commitStats0.committedInstType::SimdFloatDiv           10      0.00%     84.39% # Class of committed instruction. (Count)
system.cpu.commitStats0.committedInstType::SimdFloatMisc            0      0.00%     84.39% # Class of committed instruction. (Count)
system.cpu.commitStats0.committedInstType::SimdFloatMult            0      0.00%     84.39% # Class of committed instruction. (Count)
system.cpu.commitStats0.committedInstType::SimdFloatMultAcc            0      0.00%     84.39% # Class of committed instruction. (Count)
system.cpu.commitStats0.committedInstType::SimdFloatMatMultAcc            0      0.00%     84.39% # Class of committed instruction. (Count)
system.cpu.commitStats0.committedInstType::SimdFloatSqrt            2      0.00%     84.39% # Class of committed instruction. (Count)
system.cpu.commitStats0.committedInstType::SimdReduceAdd            0      0.00%     84.39% # Class of committed instruction. (Count)
system.cpu.commitStats0.committedInstType::SimdReduceAlu            0      0.00%     84.39% # Class of committed instruction. (Count)
system.cpu.commitStats0.committedInstType::SimdReduceCmp            0      0.00%     84.39% # Class of committed instruction. (Count)
system.cpu.commitStats0.committedInstType::SimdFloatReduceAdd            0      0.00%     84.39% # Class of committed instruction. (Count)
system.cpu.commitStats0.committedInstType::SimdFloatReduceCmp            0      0.00%     84.39% # Class of committed instruction. (Count)
system.cpu.commitStats0.committedInstType::SimdAes            0      0.00%     84.39% # Class of committed instruction. (Count)
system.cpu.commitStats0.committedInstType::SimdAesMix            0      0.00%     84.39% # Class of committed instruction. (Count)
system.cpu.commitStats0.committedInstType::SimdSha1Hash            0      0.00%     84.39% # Class of committed instruction. (Count)
system.cpu.commitStats0.committedInstType::SimdSha1Hash2            0      0.00%     84.39% # Class of committed instruction. (Count)
system.cpu.commitStats0.committedInstType::SimdSha256Hash            0      0.00%     84.39% # Class of committed instruction. (Count)
system.cpu.commitStats0.committedInstType::SimdSha256Hash2            0      0.00%     84.39% # Class of committed instruction. (Count)
system.cpu.commitStats0.committedInstType::SimdShaSigma2            0      0.00%     84.39% # Class of committed instruction. (Count)
system.cpu.commitStats0.committedInstType::SimdShaSigma3            0      0.00%     84.39% # Class of committed instruction. (Count)
system.cpu.commitStats0.committedInstType::SimdPredAlu            0      0.00%     84.39% # Class of committed instruction. (Count)
system.cpu.commitStats0.committedInstType::Matrix            0      0.00%     84.39% # Class of committed instruction. (Count)
system.cpu.commitStats0.committedInstType::MatrixMov            0      0.00%     84.39% # Class of committed instruction. (Count)
system.cpu.commitStats0.committedInstType::MatrixOP            0      0.00%     84.39% # Class of committed instruction. (Count)
system.cpu.commitStats0.committedInstType::MemRead     43403868      8.65%     93.04% # Class of committed instruction. (Count)
system.cpu.commitStats0.committedInstType::MemWrite     15133280      3.02%     96.06% # Class of committed instruction. (Count)
system.cpu.commitStats0.committedInstType::FloatMemRead     12057330      2.40%     98.46% # Class of committed instruction. (Count)
system.cpu.commitStats0.committedInstType::FloatMemWrite      7729544      1.54%    100.00% # Class of committed instruction. (Count)
system.cpu.commitStats0.committedInstType::IprAccess            0      0.00%    100.00% # Class of committed instruction. (Count)
system.cpu.commitStats0.committedInstType::InstPrefetch            0      0.00%    100.00% # Class of committed instruction. (Count)
system.cpu.commitStats0.committedInstType::SimdUnitStrideLoad            0      0.00%    100.00% # Class of committed instruction. (Count)
system.cpu.commitStats0.committedInstType::SimdUnitStrideStore            0      0.00%    100.00% # Class of committed instruction. (Count)
system.cpu.commitStats0.committedInstType::SimdUnitStrideMaskLoad            0      0.00%    100.00% # Class of committed instruction. (Count)
system.cpu.commitStats0.committedInstType::SimdUnitStrideMaskStore            0      0.00%    100.00% # Class of committed instruction. (Count)
system.cpu.commitStats0.committedInstType::SimdStridedLoad            0      0.00%    100.00% # Class of committed instruction. (Count)
system.cpu.commitStats0.committedInstType::SimdStridedStore            0      0.00%    100.00% # Class of committed instruction. (Count)
system.cpu.commitStats0.committedInstType::SimdIndexedLoad            0      0.00%    100.00% # Class of committed instruction. (Count)
system.cpu.commitStats0.committedInstType::SimdIndexedStore            0      0.00%    100.00% # Class of committed instruction. (Count)
system.cpu.commitStats0.committedInstType::SimdWholeRegisterLoad            0      0.00%    100.00% # Class of committed instruction. (Count)
system.cpu.commitStats0.committedInstType::SimdWholeRegisterStore            0      0.00%    100.00% # Class of committed instruction. (Count)
system.cpu.commitStats0.committedInstType::SimdUnitStrideFaultOnlyFirstLoad            0      0.00%    100.00% # Class of committed instruction. (Count)
system.cpu.commitStats0.committedInstType::SimdUnitStrideSegmentedLoad            0      0.00%    100.00% # Class of committed instruction. (Count)
system.cpu.commitStats0.committedInstType::SimdUnitStrideSegmentedStore            0      0.00%    100.00% # Class of committed instruction. (Count)
system.cpu.commitStats0.committedInstType::SimdExt            0      0.00%    100.00% # Class of committed instruction. (Count)
system.cpu.commitStats0.committedInstType::SimdFloatExt            0      0.00%    100.00% # Class of committed instruction. (Count)
system.cpu.commitStats0.committedInstType::SimdConfig            0      0.00%    100.00% # Class of committed instruction. (Count)
system.cpu.commitStats0.committedInstType::total    501612350                       # Class of committed instruction. (Count)
system.cpu.commitStats0.committedControl::IsControl     68703266                       # Class of control type instructions committed (Count)
system.cpu.commitStats0.committedControl::IsDirectControl     67335443                       # Class of control type instructions committed (Count)
system.cpu.commitStats0.committedControl::IsIndirectControl      1367589                       # Class of control type instructions committed (Count)
system.cpu.commitStats0.committedControl::IsCondControl     60574524                       # Class of control type instructions committed (Count)
system.cpu.commitStats0.committedControl::IsUncondControl      8128508                       # Class of control type instructions committed (Count)
system.cpu.commitStats0.committedControl::IsCall       859353                       # Class of control type instructions committed (Count)
system.cpu.commitStats0.committedControl::IsReturn       859348                       # Class of control type instructions committed (Count)
system.cpu.decode.idleCycles                 79003099                       # Number of cycles decode is idle (Cycle)
system.cpu.decode.blockedCycles              31952239                       # Number of cycles decode is blocked (Cycle)
system.cpu.decode.runCycles                  99937043                       # Number of cycles decode is running (Cycle)
system.cpu.decode.unblockCycles               9124328                       # Number of cycles decode is unblocking (Cycle)
system.cpu.decode.squashCycles                3084795                       # Number of cycles decode is squashing (Cycle)
system.cpu.decode.branchResolved             50392150                       # Number of times decode resolved a branch (Count)
system.cpu.decode.branchMispred                  2118                       # Number of times decode detected a branch misprediction (Count)
system.cpu.decode.decodedInsts              719717972                       # Number of instructions handled by decode (Count)
system.cpu.decode.squashedInsts                 10819                       # Number of squashed instructions handled by decode (Count)
system.cpu.executeStats0.numInsts           606885853                       # Number of executed instructions (Count)
system.cpu.executeStats0.numNop                     0                       # Number of nop insts executed (Count)
system.cpu.executeStats0.numBranches         79006084                       # Number of branches executed (Count)
system.cpu.executeStats0.numLoadInsts        71771435                       # Number of load instructions executed (Count)
system.cpu.executeStats0.numStoreInsts       26203755                       # Number of stores executed (Count)
system.cpu.executeStats0.instRate            2.703641                       # Inst execution rate ((Count/Cycle))
system.cpu.executeStats0.numCCRegReads      436249539                       # Number of times the CC registers were read (Count)
system.cpu.executeStats0.numCCRegWrites     225913491                       # Number of times the CC registers were written (Count)
system.cpu.executeStats0.numFpRegReads       43107601                       # Number of times the floating registers were read (Count)
system.cpu.executeStats0.numFpRegWrites      31777303                       # Number of times the floating registers were written (Count)
system.cpu.executeStats0.numIntRegReads     641657640                       # Number of times the integer registers were read (Count)
system.cpu.executeStats0.numIntRegWrites    403701409                       # Number of times the integer registers were written (Count)
system.cpu.executeStats0.numMemRefs          97975190                       # Number of memory refs (Count)
system.cpu.executeStats0.numMiscRegReads    264356847                       # Number of times the Misc registers were read (Count)
system.cpu.executeStats0.numMiscRegWrites          918                       # Number of times the Misc registers were written (Count)
system.cpu.executeStats0.numVecAluAccesses            0                       # Number of vector alu accesses (Count)
system.cpu.executeStats0.numDiscardedOps            0                       # Number of ops (including micro ops) which were discarded before commit (Count)
system.cpu.fetch.predictedBranches           54440642                       # Number of branches that fetch has predicted taken (Count)
system.cpu.fetch.cycles                     148530163                       # Number of cycles fetch has run and was not squashing or blocked (Cycle)
system.cpu.fetch.squashCycles                 6173704                       # Number of cycles fetch has spent squashing (Cycle)
system.cpu.fetch.miscStallCycles                  300                       # Number of cycles fetch has spent waiting on interrupts, or bad addresses, or out of MSHRs (Cycle)
system.cpu.fetch.pendingTrapStallCycles          2781                       # Number of stall cycles due to pending traps (Cycle)
system.cpu.fetch.cacheLines                  60514832                       # Number of cache lines fetched (Count)
[...]
system.mem_ctrl.dram.bwRead::total          283503833                       # Total read bandwidth from this memory ((Byte/Second))
system.mem_ctrl.dram.bwInstRead::cpu.inst    227907403                       # Instruction read bandwidth from this memory ((Byte/Second))
system.mem_ctrl.dram.bwInstRead::total      227907403                       # Instruction read bandwidth from this memory ((Byte/Second))
system.mem_ctrl.dram.bwWrite::writebacks     16371036                       # Write bandwidth from this memory ((Byte/Second))
system.mem_ctrl.dram.bwWrite::total          16371036                       # Write bandwidth from this memory ((Byte/Second))
system.mem_ctrl.dram.bwTotal::writebacks     16371036                       # Total bandwidth to/from this memory ((Byte/Second))
system.mem_ctrl.dram.bwTotal::cpu.inst      227907403                       # Total bandwidth to/from this memory ((Byte/Second))
system.mem_ctrl.dram.bwTotal::cpu.data       39487085                       # Total bandwidth to/from this memory ((Byte/Second))
system.mem_ctrl.dram.bwTotal::cpu.l1d.prefetcher     16109345                       # Total bandwidth to/from this memory ((Byte/Second))
system.mem_ctrl.dram.bwTotal::total         299874869                       # Total bandwidth to/from this memory ((Byte/Second))
system.mem_ctrl.dram.readBursts                908606                       # Number of DRAM read bursts (Count)
system.mem_ctrl.dram.writeBursts                22057                       # Number of DRAM write bursts (Count)
system.mem_ctrl.dram.perBankRdBursts::0         87285                       # Per bank write bursts (Count)
system.mem_ctrl.dram.perBankRdBursts::1         21860                       # Per bank write bursts (Count)
system.mem_ctrl.dram.perBankRdBursts::2         71080                       # Per bank write bursts (Count)
system.mem_ctrl.dram.perBankRdBursts::3          5059                       # Per bank write bursts (Count)
system.mem_ctrl.dram.perBankRdBursts::4         85553                       # Per bank write bursts (Count)
system.mem_ctrl.dram.perBankRdBursts::5          4764                       # Per bank write bursts (Count)
system.mem_ctrl.dram.perBankRdBursts::6         22373                       # Per bank write bursts (Count)
system.mem_ctrl.dram.perBankRdBursts::7          3355                       # Per bank write bursts (Count)
system.mem_ctrl.dram.perBankRdBursts::8          3249                       # Per bank write bursts (Count)
system.mem_ctrl.dram.perBankRdBursts::9         36413                       # Per bank write bursts (Count)
system.mem_ctrl.dram.perBankRdBursts::10         5690                       # Per bank write bursts (Count)
system.mem_ctrl.dram.perBankRdBursts::11         8893                       # Per bank write bursts (Count)
system.mem_ctrl.dram.perBankRdBursts::12       237041                       # Per bank write bursts (Count)
system.mem_ctrl.dram.perBankRdBursts::13       154485                       # Per bank write bursts (Count)
system.mem_ctrl.dram.perBankRdBursts::14        71234                       # Per bank write bursts (Count)
system.mem_ctrl.dram.perBankRdBursts::15        90272                       # Per bank write bursts (Count)
system.mem_ctrl.dram.perBankWrBursts::0          1223                       # Per bank write bursts (Count)
system.mem_ctrl.dram.perBankWrBursts::1          1356                       # Per bank write bursts (Count)
system.mem_ctrl.dram.perBankWrBursts::2          1475                       # Per bank write bursts (Count)
system.mem_ctrl.dram.perBankWrBursts::3          1096                       # Per bank write bursts (Count)
system.mem_ctrl.dram.perBankWrBursts::4           956                       # Per bank write bursts (Count)
system.mem_ctrl.dram.perBankWrBursts::5          1146                       # Per bank write bursts (Count)
system.mem_ctrl.dram.perBankWrBursts::6          1118                       # Per bank write bursts (Count)
system.mem_ctrl.dram.perBankWrBursts::7          1092                       # Per bank write bursts (Count)
system.mem_ctrl.dram.perBankWrBursts::8          1089                       # Per bank write bursts (Count)
system.mem_ctrl.dram.perBankWrBursts::9          1132                       # Per bank write bursts (Count)
system.mem_ctrl.dram.perBankWrBursts::10         1410                       # Per bank write bursts (Count)
system.mem_ctrl.dram.perBankWrBursts::11         1521                       # Per bank write bursts (Count)
system.mem_ctrl.dram.perBankWrBursts::12         1495                       # Per bank write bursts (Count)
system.mem_ctrl.dram.perBankWrBursts::13         2598                       # Per bank write bursts (Count)
system.mem_ctrl.dram.perBankWrBursts::14         1488                       # Per bank write bursts (Count)
system.mem_ctrl.dram.perBankWrBursts::15         1862                       # Per bank write bursts (Count)
system.mem_ctrl.dram.totQLat               8601400593                       # Total ticks spent queuing (Tick)
system.mem_ctrl.dram.totBusLat             4543030000                       # Total ticks spent in databus transfers (Tick)
system.mem_ctrl.dram.totMemAccLat         25637763093                       # Total ticks spent from burst creation until serviced by the DRAM (Tick)
system.mem_ctrl.dram.avgQLat                  9466.59                       # Average queueing delay per DRAM burst ((Tick/Count))
system.mem_ctrl.dram.avgBusLat                5000.00                       # Average bus latency per DRAM burst ((Tick/Count))
system.mem_ctrl.dram.avgMemAccLat            28216.59                       # Average memory access latency per DRAM burst ((Tick/Count))
system.mem_ctrl.dram.readRowHits               649854                       # Number of row buffer hits during reads (Count)
system.mem_ctrl.dram.writeRowHits               20192                       # Number of row buffer hits during writes (Count)
system.mem_ctrl.dram.readRowHitRate             71.52                       # Row buffer hit rate for reads (Ratio)
system.mem_ctrl.dram.writeRowHitRate            91.54                       # Row buffer hit rate for writes (Ratio)
system.mem_ctrl.dram.bytesPerActivate::samples       260618                       # Bytes accessed per row activation (Byte)
system.mem_ctrl.dram.bytesPerActivate::mean   228.542311                       # Bytes accessed per row activation (Byte)
system.mem_ctrl.dram.bytesPerActivate::gmean   171.130466                       # Bytes accessed per row activation (Byte)
system.mem_ctrl.dram.bytesPerActivate::stdev   188.650611                       # Bytes accessed per row activation (Byte)
system.mem_ctrl.dram.bytesPerActivate::0-127        72762     27.92%     27.92% # Bytes accessed per row activation (Byte)
system.mem_ctrl.dram.bytesPerActivate::128-255        65395     25.09%     53.01% # Bytes accessed per row activation (Byte)
system.mem_ctrl.dram.bytesPerActivate::256-383        90297     34.65%     87.66% # Bytes accessed per row activation (Byte)
system.mem_ctrl.dram.bytesPerActivate::384-511        12585      4.83%     92.49% # Bytes accessed per row activation (Byte)
system.mem_ctrl.dram.bytesPerActivate::512-639         1563      0.60%     93.09% # Bytes accessed per row activation (Byte)
system.mem_ctrl.dram.bytesPerActivate::640-767         6984      2.68%     95.77% # Bytes accessed per row activation (Byte)
system.mem_ctrl.dram.bytesPerActivate::768-895         6957      2.67%     98.44% # Bytes accessed per row activation (Byte)
system.mem_ctrl.dram.bytesPerActivate::896-1023         2257      0.87%     99.30% # Bytes accessed per row activation (Byte)
system.mem_ctrl.dram.bytesPerActivate::1024-1151         1818      0.70%    100.00% # Bytes accessed per row activation (Byte)
system.mem_ctrl.dram.bytesPerActivate::total       260618                       # Bytes accessed per row activation (Byte)
system.mem_ctrl.dram.dramBytesRead           58150784                       # Total bytes read (Byte)
system.mem_ctrl.dram.dramBytesWritten         1411648                       # Total bytes written (Byte)
system.mem_ctrl.dram.avgRdBW               273.303594                       # Average DRAM read bandwidth in MiBytes/s ((Byte/Second))
system.mem_ctrl.dram.avgWrBW                 6.634622                       # Average DRAM write bandwidth in MiBytes/s ((Byte/Second))
system.mem_ctrl.dram.peakBW                  12800.00                       # Theoretical peak bandwidth in MiByte/s ((Byte/Second))
system.mem_ctrl.dram.busUtil                     2.19                       # Data bus utilization in percentage (Ratio)
system.mem_ctrl.dram.busUtilRead                 2.14                       # Data bus utilization in percentage for reads (Ratio)
system.mem_ctrl.dram.busUtilWrite                0.05                       # Data bus utilization in percentage for writes (Ratio)
system.mem_ctrl.dram.pageHitRate                72.00                       # Row buffer hit rate, read and write combined (Ratio)
system.mem_ctrl.dram.power_state.pwrStateResidencyTicks::UNDEFINED 212769920619                       # Cumulative time (in ticks) in various power states (Tick)
system.mem_ctrl.dram.rank0.actEnergy        826233660                       # Energy for activate commands per rank (pJ) (Joule)
system.mem_ctrl.dram.rank0.preEnergy        439149810                       # Energy for precharge commands per rank (pJ) (Joule)
system.mem_ctrl.dram.rank0.readEnergy      2151489060                       # Energy for read commands per rank (pJ) (Joule)
system.mem_ctrl.dram.rank0.writeEnergy       49391640                       # Energy for write commands per rank (pJ) (Joule)
system.mem_ctrl.dram.rank0.refreshEnergy 16795652640.000002                       # Energy for refresh commands per rank (pJ) (Joule)
system.mem_ctrl.dram.rank0.actBackEnergy  84337278660                       # Energy for active background per rank (pJ) (Joule)
system.mem_ctrl.dram.rank0.preBackEnergy  10682783040                       # Energy for precharge background per rank (pJ) (Joule)
system.mem_ctrl.dram.rank0.actPowerDownEnergy            0                       # Energy for active power-down per rank (pJ) (Joule)
system.mem_ctrl.dram.rank0.prePowerDownEnergy            0                       # Energy for precharge power-down per rank (pJ) (Joule)
system.mem_ctrl.dram.rank0.selfRefreshEnergy            0                       # Energy for self refresh per rank (pJ) (Joule)
system.mem_ctrl.dram.rank0.totalEnergy   115281978510                       # Total energy per rank (pJ) (Joule)
system.mem_ctrl.dram.rank0.averagePower    541.815207                       # Core power per rank (mW) (Watt)
system.mem_ctrl.dram.rank0.totalIdleTime            0                       # Total Idle time Per DRAM Rank (Tick)
system.mem_ctrl.dram.rank0.pwrStateTime::IDLE  27049778560                       # Time in different power states (Tick)
system.mem_ctrl.dram.rank0.pwrStateTime::REF   7104760000                       # Time in different power states (Tick)
system.mem_ctrl.dram.rank0.pwrStateTime::SREF            0                       # Time in different power states (Tick)
system.mem_ctrl.dram.rank0.pwrStateTime::PRE_PDN            0                       # Time in different power states (Tick)
system.mem_ctrl.dram.rank0.pwrStateTime::ACT 178615382059                       # Time in different power states (Tick)
system.mem_ctrl.dram.rank0.pwrStateTime::ACT_PDN            0                       # Time in different power states (Tick)
system.mem_ctrl.dram.rank1.actEnergy       1034571720                       # Energy for activate commands per rank (pJ) (Joule)
system.mem_ctrl.dram.rank1.preEnergy        549895500                       # Energy for precharge commands per rank (pJ) (Joule)
system.mem_ctrl.dram.rank1.readEnergy      4335957780                       # Energy for read commands per rank (pJ) (Joule)
system.mem_ctrl.dram.rank1.writeEnergy       65745900                       # Energy for write commands per rank (pJ) (Joule)
system.mem_ctrl.dram.rank1.refreshEnergy 16795652640.000002                       # Energy for refresh commands per rank (pJ) (Joule)
system.mem_ctrl.dram.rank1.actBackEnergy  91979252130                       # Energy for active background per rank (pJ) (Joule)
system.mem_ctrl.dram.rank1.preBackEnergy   4247436960                       # Energy for precharge background per rank (pJ) (Joule)
system.mem_ctrl.dram.rank1.actPowerDownEnergy            0                       # Energy for active power-down per rank (pJ) (Joule)
system.mem_ctrl.dram.rank1.prePowerDownEnergy            0                       # Energy for precharge power-down per rank (pJ) (Joule)
system.mem_ctrl.dram.rank1.selfRefreshEnergy            0                       # Energy for self refresh per rank (pJ) (Joule)
system.mem_ctrl.dram.rank1.totalEnergy   119008512630                       # Total energy per rank (pJ) (Joule)
system.mem_ctrl.dram.rank1.averagePower    559.329591                       # Core power per rank (mW) (Watt)
system.mem_ctrl.dram.rank1.totalIdleTime            0                       # Total Idle time Per DRAM Rank (Tick)
system.mem_ctrl.dram.rank1.pwrStateTime::IDLE  10295326885                       # Time in different power states (Tick)
system.mem_ctrl.dram.rank1.pwrStateTime::REF   7104760000                       # Time in different power states (Tick)
system.mem_ctrl.dram.rank1.pwrStateTime::SREF            0                       # Time in different power states (Tick)
system.mem_ctrl.dram.rank1.pwrStateTime::PRE_PDN            0                       # Time in different power states (Tick)
system.mem_ctrl.dram.rank1.pwrStateTime::ACT 195369833734                       # Time in different power states (Tick)
system.mem_ctrl.dram.rank1.pwrStateTime::ACT_PDN            0                       # Time in different power states (Tick)
system.mem_ctrl.power_state.pwrStateResidencyTicks::UNDEFINED 212769920619                       # Cumulative time (in ticks) in various power states (Tick)
system.membus.transDist::ReadResp              907267                       # Transaction distribution (Count)
system.membus.transDist::WritebackDirty         54426                       # Transaction distribution (Count)
system.membus.transDist::CleanEvict            888092                       # Transaction distribution (Count)
system.membus.transDist::ReadExReq              35252                       # Transaction distribution (Count)
system.membus.transDist::ReadExResp             35252                       # Transaction distribution (Count)
system.membus.transDist::ReadSharedReq         907266                       # Transaction distribution (Count)
system.membus.pktCount_system.cpu.l1d.mem_side_port::system.mem_ctrl.port       554496                       # Packet count per connected requestor and responder (Count)
system.membus.pktCount_system.cpu.l1d.mem_side_port::total       554496                       # Packet count per connected requestor and responder (Count)
system.membus.pktCount_system.cpu.l1i.mem_side_port::system.mem_ctrl.port      2273058                       # Packet count per connected requestor and responder (Count)
system.membus.pktCount_system.cpu.l1i.mem_side_port::total      2273058                       # Packet count per connected requestor and responder (Count)
system.membus.pktCount::total                 2827554                       # Packet count per connected requestor and responder (Count)
system.membus.pktSize_system.cpu.l1d.mem_side_port::system.mem_ctrl.port     15312512                       # Cumulative packet size per connected requestor and responder (Byte)
system.membus.pktSize_system.cpu.l1d.mem_side_port::total     15312512                       # Cumulative packet size per connected requestor and responder (Byte)
system.membus.pktSize_system.cpu.l1i.mem_side_port::system.mem_ctrl.port     48491904                       # Cumulative packet size per connected requestor and responder (Byte)
system.membus.pktSize_system.cpu.l1i.mem_side_port::total     48491904                       # Cumulative packet size per connected requestor and responder (Byte)
system.membus.pktSize::total                 63804416                       # Cumulative packet size per connected requestor and responder (Byte)
system.membus.snoops                                1                       # Total snoops (Count)
system.membus.snoopTraffic                         64                       # Total snoop traffic (Byte)
system.membus.snoopFanout::samples             942518                       # Request fanout histogram (Count)
system.membus.snoopFanout::mean              0.000024                       # Request fanout histogram (Count)
system.membus.snoopFanout::stdev             0.004940                       # Request fanout histogram (Count)
system.membus.snoopFanout::underflows               0      0.00%      0.00% # Request fanout histogram (Count)
system.membus.snoopFanout::0                   942495    100.00%    100.00% # Request fanout histogram (Count)
system.membus.snoopFanout::1                       23      0.00%    100.00% # Request fanout histogram (Count)
system.membus.snoopFanout::2                        0      0.00%    100.00% # Request fanout histogram (Count)
system.membus.snoopFanout::overflows                0      0.00%    100.00% # Request fanout histogram (Count)
system.membus.snoopFanout::min_value                0                       # Request fanout histogram (Count)
system.membus.snoopFanout::max_value                1                       # Request fanout histogram (Count)
system.membus.snoopFanout::total               942518                       # Request fanout histogram (Count)
system.membus.power_state.pwrStateResidencyTicks::UNDEFINED 212769920619                       # Cumulative time (in ticks) in various power states (Tick)
system.membus.reqLayer2.occupancy         28307514490                       # Layer occupancy (ticks) (Tick)
system.membus.reqLayer2.utilization               0.1                       # Layer utilization (Ratio)
system.membus.respLayer2.occupancy        12544592791                       # Layer occupancy (ticks) (Tick)
system.membus.respLayer2.utilization              0.1                       # Layer utilization (Ratio)
system.membus.respLayer3.occupancy        51581423180                       # Layer occupancy (ticks) (Tick)
system.membus.respLayer3.utilization              0.2                       # Layer utilization (Ratio)
system.membus.snoop_filter.totRequests        1885036                       # Total number of requests made to the snoop filter. (Count)
system.membus.snoop_filter.hitSingleRequests       942518                       # Number of requests hitting in the snoop filter with a single holder of the requested data. (Count)
system.membus.snoop_filter.hitMultiRequests           23                       # Number of requests hitting in the snoop filter with multiple (>1) holders of the requested data. (Count)
system.membus.snoop_filter.totSnoops                0                       # Total number of snoops made to the snoop filter. (Count)
system.membus.snoop_filter.hitSingleSnoops            0                       # Number of snoops hitting in the snoop filter with a single holder of the requested data. (Count)
system.membus.snoop_filter.hitMultiSnoops            0                       # Number of snoops hitting in the snoop filter with multiple (>1) holders of the requested data. (Count)
system.workload.inst.arm                            0                       # number of arm instructions executed (Count)
system.workload.inst.quiesce                        0                       # number of quiesce instructions executed (Count)

---------- End Simulation Statistics   ----------
