
---------- Begin Simulation Statistics ----------
simSeconds                                   2.070934                       # Number of seconds simulated (Second)
simTicks                                 2070933985356                       # Number of ticks simulated (Tick)
finalTick                                2070933985356                       # Number of ticks from beginning of simulation (restored from checkpoints and never reset) (Tick)
simFreq                                  1000000000000                       # The number of ticks per simulated second ((Tick/Second))
hostSeconds                                   1065.66                       # Real time elapsed on the host (Second)
hostTickRate                               1943328225                       # The number of ticks simulated per host second (ticks/s) ((Tick/Second))
hostMemory                                    8661476                       # Number of bytes of host memory used (Byte)
simInsts                                    230516008                       # Number of instructions simulated (Count)
simOps                                      370296707                       # Number of ops (including micro ops) simulated (Count)
hostInstRate                                   216312                       # Simulator instruction rate (inst/s) ((Count/Second))
hostOpRate                                     347480                       # Simulator op (including micro ops) rate (op/s) ((Count/Second))
system.clk_domain.clock                         13333                       # Clock period in ticks (Tick)
system.clk_domain.voltage_domain.voltage            1                       # Voltage in Volts (Volt)
system.cpu.numCycles                        155323933                       # Number of cpu cycles simulated (Cycle)
system.cpu.cpi                               0.673810                       # CPI: cycles per instruction (core level) ((Cycle/Count))
system.cpu.ipc                               1.484098                       # IPC: instructions per cycle (core level) ((Count/Cycle))
system.cpu.numWorkItemsStarted                      0                       # Number of work items this cpu started (Count)
system.cpu.numWorkItemsCompleted                    0                       # Number of work items this cpu completed (Count)
system.cpu.instsAdded                       524395718                       # Number of instructions added to the IQ (excludes non-spec) (Count)
system.cpu.nonSpecInstsAdded                   459799                       # Number of non-speculative instructions added to the IQ (Count)
system.cpu.instsIssued                      474654702                       # Number of instructions issued (Count)
system.cpu.squashedInstsIssued                2847279                       # Number of squashed instructions issued (Count)
system.cpu.squashedInstsExamined            154558799                       # Number of squashed instructions iterated over during squash; mainly for profiling (Count)
system.cpu.squashedOperandsExamined         295826453                       # Number of squashed operands that are examined and possibly removed from graph (Count)
system.cpu.squashedNonSpecRemoved               29436                       # Number of squashed non-spec instructions that were removed (Count)
system.cpu.numIssuedDist::samples           155290099                       # Number of insts issued each cycle (Count)
system.cpu.numIssuedDist::mean               3.056568                       # Number of insts issued each cycle (Count)
system.cpu.numIssuedDist::stdev              2.667601                       # Number of insts issued each cycle (Count)
system.cpu.numIssuedDist::underflows                0      0.00%      0.00% # Number of insts issued each cycle (Count)
system.cpu.numIssuedDist::0                  42634301     27.45%     27.45% # Number of insts issued each cycle (Count)
system.cpu.numIssuedDist::1                  13544665      8.72%     36.18% # Number of insts issued each cycle (Count)
system.cpu.numIssuedDist::2                  18882668     12.16%     48.34% # Number of insts issued each cycle (Count)
system.cpu.numIssuedDist::3                  15951467     10.27%     58.61% # Number of insts issued each cycle (Count)
system.cpu.numIssuedDist::4                  15622428     10.06%     68.67% # Number of insts issued each cycle (Count)
system.cpu.numIssuedDist::5                  11953435      7.70%     76.37% # Number of insts issued each cycle (Count)
system.cpu.numIssuedDist::6                  15601391     10.05%     86.41% # Number of insts issued each cycle (Count)
system.cpu.numIssuedDist::7                   9172885      5.91%     92.32% # Number of insts issued each cycle (Count)
system.cpu.numIssuedDist::8                  11926859      7.68%    100.00% # Number of insts issued each cycle (Count)
system.cpu.numIssuedDist::overflows                 0      0.00%    100.00% # Number of insts issued each cycle (Count)
system.cpu.numIssuedDist::min_value                 0                       # Number of insts issued each cycle (Count)
system.cpu.numIssuedDist::max_value                 8                       # Number of insts issued each cycle (Count)
system.cpu.numIssuedDist::total             155290099                       # Number of insts issued each cycle (Count)
system.cpu.statFuBusy::No_OpClass                   0      0.00%      0.00% # attempts to use FU when none available (Count)
system.cpu.statFuBusy::IntAlu                 7720225     65.35%     65.35% # attempts to use FU when none available (Count)
system.cpu.statFuBusy::IntMult                     58      0.00%     65.35% # attempts to use FU when none available (Count)
system.cpu.statFuBusy::IntDiv                       0      0.00%     65.35% # attempts to use FU when none available (Count)
system.cpu.statFuBusy::FloatAdd                     0      0.00%     65.35% # attempts to use FU when none available (Count)
system.cpu.statFuBusy::FloatCmp                     0      0.00%     65.35% # attempts to use FU when none available (Count)
system.cpu.statFuBusy::FloatCvt                     0      0.00%     65.35% # attempts to use FU when none available (Count)
system.cpu.statFuBusy::FloatMult                    0      0.00%     65.35% # attempts to use FU when none available (Count)
system.cpu.statFuBusy::FloatMultAcc                 0      0.00%     65.35% # attempts to use FU when none available (Count)
system.cpu.statFuBusy::FloatDiv                     0      0.00%     65.35% # attempts to use FU when none available (Count)
system.cpu.statFuBusy::FloatMisc                    0      0.00%     65.35% # attempts to use FU when none available (Count)
system.cpu.statFuBusy::FloatSqrt                    0      0.00%     65.35% # attempts to use FU when none available (Count)
system.cpu.statFuBusy::SimdAdd                     20      0.00%     65.35% # attempts to use FU when none available (Count)
system.cpu.statFuBusy::SimdAddAcc                   0      0.00%     65.35% # attempts to use FU when none available (Count)
system.cpu.statFuBusy::SimdAlu                    688      0.01%     65.36% # attempts to use FU when none available (Count)
system.cpu.statFuBusy::SimdCmp                      1      0.00%     65.36% # attempts to use FU when none available (Count)
system.cpu.statFuBusy::SimdCvt                    460      0.00%     65.36% # attempts to use FU when none available (Count)
system.cpu.statFuBusy::SimdMisc                    81      0.00%     65.36% # attempts to use FU when none available (Count)
system.cpu.statFuBusy::SimdMult                     0      0.00%     65.36% # attempts to use FU when none available (Count)
system.cpu.statFuBusy::SimdMultAcc                  0      0.00%     65.36% # attempts to use FU when none available (Count)
system.cpu.statFuBusy::SimdMatMultAcc               0      0.00%     65.36% # attempts to use FU when none available (Count)
system.cpu.statFuBusy::SimdShift                   52      0.00%     65.36% # attempts to use FU when none available (Count)
system.cpu.statFuBusy::SimdShiftAcc                 0      0.00%     65.36% # attempts to use FU when none available (Count)
system.cpu.statFuBusy::SimdDiv                      0      0.00%     65.36% # attempts to use FU when none available (Count)
system.cpu.statFuBusy::SimdSqrt                     0      0.00%     65.36% # attempts to use FU when none available (Count)
system.cpu.statFuBusy::SimdFloatAdd                 0      0.00%     65.36% # attempts to use FU when none available (Count)
system.cpu.statFuBusy::SimdFloatAlu                 0      0.00%     65.36% # attempts to use FU when none available (Count)
system.cpu.statFuBusy::SimdFloatCmp                 0      0.00%     65.36% # attempts to use FU when none available (Count)
system.cpu.statFuBusy::SimdFloatCvt                 0      0.00%     65.36% # attempts to use FU when none available (Count)
system.cpu.statFuBusy::SimdFloatDiv                 0      0.00%     65.36% # attempts to use FU when none available (Count)
system.cpu.statFuBusy::SimdFloatMisc                0      0.00%     65.36% # attempts to use FU when none available (Count)
system.cpu.statFuBusy::SimdFloatMult               81      0.00%     65.36% # attempts to use FU when none available (Count)
system.cpu.statFuBusy::SimdFloatMultAcc             0      0.00%     65.36% # attempts to use FU when none available (Count)
system.cpu.statFuBusy::SimdFloatMatMultAcc            0      0.00%     65.36% # attempts to use FU when none available (Count)
system.cpu.statFuBusy::SimdFloatSqrt                0      0.00%     65.36% # attempts to use FU when none available (Count)
system.cpu.statFuBusy::SimdReduceAdd                0      0.00%     65.36% # attempts to use FU when none available (Count)
system.cpu.statFuBusy::SimdReduceAlu                0      0.00%     65.36% # attempts to use FU when none available (Count)
system.cpu.statFuBusy::SimdReduceCmp                0      0.00%     65.36% # attempts to use FU when none available (Count)
system.cpu.statFuBusy::SimdFloatReduceAdd            0      0.00%     65.36% # attempts to use FU when none available (Count)
system.cpu.statFuBusy::SimdFloatReduceCmp            0      0.00%     65.36% # attempts to use FU when none available (Count)
system.cpu.statFuBusy::SimdAes                      0      0.00%     65.36% # attempts to use FU when none available (Count)
system.cpu.statFuBusy::SimdAesMix                   0      0.00%     65.36% # attempts to use FU when none available (Count)
system.cpu.statFuBusy::SimdSha1Hash                 0      0.00%     65.36% # attempts to use FU when none available (Count)
system.cpu.statFuBusy::SimdSha1Hash2                0      0.00%     65.36% # attempts to use FU when none available (Count)
system.cpu.statFuBusy::SimdSha256Hash               0      0.00%     65.36% # attempts to use FU when none available (Count)
system.cpu.statFuBusy::SimdSha256Hash2              0      0.00%     65.36% # attempts to use FU when none available (Count)
system.cpu.statFuBusy::SimdShaSigma2                0      0.00%     65.36% # attempts to use FU when none available (Count)
system.cpu.statFuBusy::SimdShaSigma3                0      0.00%     65.36% # attempts to use FU when none available (Count)
system.cpu.statFuBusy::SimdPredAlu                  0      0.00%     65.36% # attempts to use FU when none available (Count)
system.cpu.statFuBusy::Matrix                       0      0.00%     65.36% # attempts to use FU when none available (Count)
system.cpu.statFuBusy::MatrixMov                    0      0.00%     65.36% # attempts to use FU when none available (Count)
system.cpu.statFuBusy::MatrixOP                     0      0.00%     65.36% # attempts to use FU when none available (Count)
system.cpu.statFuBusy::MemRead                2846979     24.10%     89.46% # attempts to use FU when none available (Count)
system.cpu.statFuBusy::MemWrite                691252      5.85%     95.32% # attempts to use FU when none available (Count)
system.cpu.statFuBusy::FloatMemRead            535724      4.53%     99.85% # attempts to use FU when none available (Count)
system.cpu.statFuBusy::FloatMemWrite            17603      0.15%    100.00% # attempts to use FU when none available (Count)
system.cpu.statFuBusy::IprAccess                    0      0.00%    100.00% # attempts to use FU when none available (Count)
system.cpu.statFuBusy::InstPrefetch                 0      0.00%    100.00% # attempts to use FU when none available (Count)
system.cpu.statFuBusy::SimdUnitStrideLoad            0      0.00%    100.00% # attempts to use FU when none available (Count)
system.cpu.statFuBusy::SimdUnitStrideStore            0      0.00%    100.00% # attempts to use FU when none available (Count)
system.cpu.statFuBusy::SimdUnitStrideMaskLoad            0      0.00%    100.00% # attempts to use FU when none available (Count)
system.cpu.statFuBusy::SimdUnitStrideMaskStore            0      0.00%    100.00% # attempts to use FU when none available (Count)
system.cpu.statFuBusy::SimdStridedLoad              0      0.00%    100.00% # attempts to use FU when none available (Count)
system.cpu.statFuBusy::SimdStridedStore             0      0.00%    100.00% # attempts to use FU when none available (Count)
system.cpu.statFuBusy::SimdIndexedLoad              0      0.00%    100.00% # attempts to use FU when none available (Count)
system.cpu.statFuBusy::SimdIndexedStore             0      0.00%    100.00% # attempts to use FU when none available (Count)
system.cpu.statFuBusy::SimdWholeRegisterLoad            0      0.00%    100.00% # attempts to use FU when none available (Count)
system.cpu.statFuBusy::SimdWholeRegisterStore            0      0.00%    100.00% # attempts to use FU when none available (Count)
system.cpu.statFuBusy::SimdUnitStrideFaultOnlyFirstLoad            0      0.00%    100.00% # attempts to use FU when none available (Count)
system.cpu.statFuBusy::SimdUnitStrideSegmentedLoad            0      0.00%    100.00% # attempts to use FU when none available (Count)
system.cpu.statFuBusy::SimdUnitStrideSegmentedStore            0      0.00%    100.00% # attempts to use FU when none available (Count)
system.cpu.statFuBusy::SimdExt                      0      0.00%    100.00% # attempts to use FU when none available (Count)
system.cpu.statFuBusy::SimdFloatExt                 0      0.00%    100.00% # attempts to use FU when none available (Count)
system.cpu.statFuBusy::SimdConfig                   0      0.00%    100.00% # attempts to use FU when none available (Count)
system.cpu.statIssuedInstType_0::No_OpClass      1622042      0.34%      0.34% # Number of instructions issued per FU type, per thread (Count)
system.cpu.statIssuedInstType_0::IntAlu     359066756     75.65%     75.99% # Number of instructions issued per FU type, per thread (Count)
system.cpu.statIssuedInstType_0::IntMult     12357189      2.60%     78.59% # Number of instructions issued per FU type, per thread (Count)
system.cpu.statIssuedInstType_0::IntDiv       2833992      0.60%     79.19% # Number of instructions issued per FU type, per thread (Count)
system.cpu.statIssuedInstType_0::FloatAdd        12562      0.00%     79.19% # Number of instructions issued per FU type, per thread (Count)
system.cpu.statIssuedInstType_0::FloatCmp            0      0.00%     79.19% # Number of instructions issued per FU type, per thread (Count)
system.cpu.statIssuedInstType_0::FloatCvt         1527      0.00%     79.19% # Number of instructions issued per FU type, per thread (Count)
system.cpu.statIssuedInstType_0::FloatMult            0      0.00%     79.19% # Number of instructions issued per FU type, per thread (Count)
system.cpu.statIssuedInstType_0::FloatMultAcc            0      0.00%     79.19% # Number of instructions issued per FU type, per thread (Count)
system.cpu.statIssuedInstType_0::FloatDiv            0      0.00%     79.19% # Number of instructions issued per FU type, per thread (Count)
system.cpu.statIssuedInstType_0::FloatMisc            0      0.00%     79.19% # Number of instructions issued per FU type, per thread (Count)
system.cpu.statIssuedInstType_0::FloatSqrt            0      0.00%     79.19% # Number of instructions issued per FU type, per thread (Count)
system.cpu.statIssuedInstType_0::SimdAdd         7994      0.00%     79.19% # Number of instructions issued per FU type, per thread (Count)
system.cpu.statIssuedInstType_0::SimdAddAcc            0      0.00%     79.19% # Number of instructions issued per FU type, per thread (Count)
system.cpu.statIssuedInstType_0::SimdAlu        25808      0.01%     79.20% # Number of instructions issued per FU type, per thread (Count)
system.cpu.statIssuedInstType_0::SimdCmp           49      0.00%     79.20% # Number of instructions issued per FU type, per thread (Count)
system.cpu.statIssuedInstType_0::SimdCvt        20014      0.00%     79.20% # Number of instructions issued per FU type, per thread (Count)
system.cpu.statIssuedInstType_0::SimdMisc        24193      0.01%     79.21% # Number of instructions issued per FU type, per thread (Count)
system.cpu.statIssuedInstType_0::SimdMult            0      0.00%     79.21% # Number of instructions issued per FU type, per thread (Count)
system.cpu.statIssuedInstType_0::SimdMultAcc            0      0.00%     79.21% # Number of instructions issued per FU type, per thread (Count)
system.cpu.statIssuedInstType_0::SimdMatMultAcc            0      0.00%     79.21% # Number of instructions issued per FU type, per thread (Count)
system.cpu.statIssuedInstType_0::SimdShift         4128      0.00%     79.21% # Number of instructions issued per FU type, per thread (Count)
system.cpu.statIssuedInstType_0::SimdShiftAcc            0      0.00%     79.21% # Number of instructions issued per FU type, per thread (Count)
system.cpu.statIssuedInstType_0::SimdDiv            0      0.00%     79.21% # Number of instructions issued per FU type, per thread (Count)
system.cpu.statIssuedInstType_0::SimdSqrt            0      0.00%     79.21% # Number of instructions issued per FU type, per thread (Count)
system.cpu.statIssuedInstType_0::SimdFloatAdd         1079      0.00%     79.21% # Number of instructions issued per FU type, per thread (Count)
system.cpu.statIssuedInstType_0::SimdFloatAlu            0      0.00%     79.21% # Number of instructions issued per FU type, per thread (Count)
system.cpu.statIssuedInstType_0::SimdFloatCmp            0      0.00%     79.21% # Number of instructions issued per FU type, per thread (Count)
system.cpu.statIssuedInstType_0::SimdFloatCvt         1664      0.00%     79.21% # Number of instructions issued per FU type, per thread (Count)
system.cpu.statIssuedInstType_0::SimdFloatDiv          337      0.00%     79.21% # Number of instructions issued per FU type, per thread (Count)
system.cpu.statIssuedInstType_0::SimdFloatMisc            0      0.00%     79.21% # Number of instructions issued per FU type, per thread (Count)
system.cpu.statIssuedInstType_0::SimdFloatMult          493      0.00%     79.21% # Number of instructions issued per FU type, per thread (Count)
system.cpu.statIssuedInstType_0::SimdFloatMultAcc            0      0.00%     79.21% # Number of instructions issued per FU type, per thread (Count)
system.cpu.statIssuedInstType_0::SimdFloatMatMultAcc            0      0.00%     79.21% # Number of instructions issued per FU type, per thread (Count)
system.cpu.statIssuedInstType_0::SimdFloatSqrt           82      0.00%     79.21% # Number of instructions issued per FU type, per thread (Count)
system.cpu.statIssuedInstType_0::SimdReduceAdd            0      0.00%     79.21% # Number of instructions issued per FU type, per thread (Count)
system.cpu.statIssuedInstType_0::SimdReduceAlu            0      0.00%     79.21% # Number of instructions issued per FU type, per thread (Count)
system.cpu.statIssuedInstType_0::SimdReduceCmp            0      0.00%     79.21% # Number of instructions issued per FU type, per thread (Count)
system.cpu.statIssuedInstType_0::SimdFloatReduceAdd            0      0.00%     79.21% # Number of instructions issued per FU type, per thread (Count)
system.cpu.statIssuedInstType_0::SimdFloatReduceCmp            0      0.00%     79.21% # Number of instructions issued per FU type, per thread (Count)
system.cpu.statIssuedInstType_0::SimdAes            0      0.00%     79.21% # Number of instructions issued per FU type, per thread (Count)
system.cpu.statIssuedInstType_0::SimdAesMix            0      0.00%     79.21% # Number of instructions issued per FU type, per thread (Count)
system.cpu.statIssuedInstType_0::SimdSha1Hash            0      0.00%     79.21% # Number of instructions issued per FU type, per thread (Count)
system.cpu.statIssuedInstType_0::SimdSha1Hash2            0      0.00%     79.21% # Number of instructions issued per FU type, per thread (Count)
system.cpu.statIssuedInstType_0::SimdSha256Hash            0      0.00%     79.21% # Number of instructions issued per FU type, per thread (Count)
system.cpu.statIssuedInstType_0::SimdSha256Hash2            0      0.00%     79.21% # Number of instructions issued per FU type, per thread (Count)
system.cpu.statIssuedInstType_0::SimdShaSigma2            0      0.00%     79.21% # Number of instructions issued per FU type, per thread (Count)
system.cpu.statIssuedInstType_0::SimdShaSigma3            0      0.00%     79.21% # Number of instructions issued per FU type, per thread (Count)
system.cpu.statIssuedInstType_0::SimdPredAlu            0      0.00%     79.21% # Number of instructions issued per FU type, per thread (Count)
system.cpu.statIssuedInstType_0::Matrix             0      0.00%     79.21% # Number of instructions issued per FU type, per thread (Count)
system.cpu.statIssuedInstType_0::MatrixMov            0      0.00%     79.21% # Number of instructions issued per FU type, per thread (Count)
system.cpu.statIssuedInstType_0::MatrixOP            0      0.00%     79.21% # Number of instructions issued per FU type, per thread (Count)
system.cpu.statIssuedInstType_0::MemRead     66872981     14.09%     93.30% # Number of instructions issued per FU type, per thread (Count)
system.cpu.statIssuedInstType_0::MemWrite     20868691      4.40%     97.70% # Number of instructions issued per FU type, per thread (Count)
system.cpu.statIssuedInstType_0::FloatMemRead      6259356      1.32%     99.02% # Number of instructions issued per FU type, per thread (Count)
system.cpu.statIssuedInstType_0::FloatMemWrite      4673765      0.98%    100.00% # Number of instructions issued per FU type, per thread (Count)
system.cpu.statIssuedInstType_0::IprAccess            0      0.00%    100.00% # Number of instructions issued per FU type, per thread (Count)
system.cpu.statIssuedInstType_0::InstPrefetch            0      0.00%    100.00% # Number of instructions issued per FU type, per thread (Count)
system.cpu.statIssuedInstType_0::SimdUnitStrideLoad            0      0.00%    100.00% # Number of instructions issued per FU type, per thread (Count)
system.cpu.statIssuedInstType_0::SimdUnitStrideStore            0      0.00%    100.00% # Number of instructions issued per FU type, per thread (Count)
system.cpu.statIssuedInstType_0::SimdUnitStrideMaskLoad            0      0.00%    100.00% # Number of instructions issued per FU type, per thread (Count)
system.cpu.statIssuedInstType_0::SimdUnitStrideMaskStore            0      0.00%    100.00% # Number of instructions issued per FU type, per thread (Count)
system.cpu.statIssuedInstType_0::SimdStridedLoad            0      0.00%    100.00% # Number of instructions issued per FU type, per thread (Count)
system.cpu.statIssuedInstType_0::SimdStridedStore            0      0.00%    100.00% # Number of instructions issued per FU type, per thread (Count)
system.cpu.statIssuedInstType_0::SimdIndexedLoad            0      0.00%    100.00% # Number of instructions issued per FU type, per thread (Count)
system.cpu.statIssuedInstType_0::SimdIndexedStore            0      0.00%    100.00% # Number of instructions issued per FU type, per thread (Count)
system.cpu.statIssuedInstType_0::SimdWholeRegisterLoad            0      0.00%    100.00% # Number of instructions issued per FU type, per thread (Count)
system.cpu.statIssuedInstType_0::SimdWholeRegisterStore            0      0.00%    100.00% # Number of instructions issued per FU type, per thread (Count)
system.cpu.statIssuedInstType_0::SimdUnitStrideFaultOnlyFirstLoad            0      0.00%    100.00% # Number of instructions issued per FU type, per thread (Count)
system.cpu.statIssuedInstType_0::SimdUnitStrideSegmentedLoad            0      0.00%    100.00% # Number of instructions issued per FU type, per thread (Count)
system.cpu.statIssuedInstType_0::SimdUnitStrideSegmentedStore            0      0.00%    100.00% # Number of instructions issued per FU type, per thread (Count)
system.cpu.statIssuedInstType_0::SimdExt            0      0.00%    100.00% # Number of instructions issued per FU type, per thread (Count)
system.cpu.statIssuedInstType_0::SimdFloatExt            0      0.00%    100.00% # Number of instructions issued per FU type, per thread (Count)
system.cpu.statIssuedInstType_0::SimdConfig            0      0.00%    100.00% # Number of instructions issued per FU type, per thread (Count)
system.cpu.statIssuedInstType_0::total      474654702                       # Number of instructions issued per FU type, per thread (Count)
system.cpu.issueRate                         3.055902                       # Inst issue rate ((Count/Cycle))
system.cpu.fuBusy                            11813224                       # FU busy when requested (Count)
system.cpu.fuBusyRate                        0.024888                       # FU busy rate (busy events/executed inst) ((Count/Count))
system.cpu.intInstQueueReads               1096431973                       # Number of integer instruction queue reads (Count)
system.cpu.intInstQueueWrites               655419486                       # Number of integer instruction queue writes (Count)
system.cpu.intInstQueueWakeupAccesses       449989571                       # Number of integer instruction queue wakeup accesses (Count)
system.cpu.fpInstQueueReads                  22828033                       # Number of floating instruction queue reads (Count)
system.cpu.fpInstQueueWrites                 24120387                       # Number of floating instruction queue writes (Count)
system.cpu.fpInstQueueWakeupAccesses          9374989                       # Number of floating instruction queue wakeup accesses (Count)
system.cpu.vecInstQueueReads                        0                       # Number of vector instruction queue reads (Count)
system.cpu.vecInstQueueWrites                       0                       # Number of vector instruction queue writes (Count)
system.cpu.vecInstQueueWakeupAccesses               0                       # Number of vector instruction queue wakeup accesses (Count)
system.cpu.intAluAccesses                   473249887                       # Number of integer alu accesses (Count)
system.cpu.fpAluAccesses                     11595997                       # Number of floating point alu accesses (Count)
system.cpu.vecAluAccesses                           0                       # Number of vector alu accesses (Count)
system.cpu.numSquashedInsts                   8702030                       # Number of squashed instructions skipped in execute (Count)
system.cpu.numSwp                                   0                       # Number of swp insts executed (Count)
system.cpu.timesIdled                            7183                       # Number of times that the entire CPU went into an idle state and unscheduled itself (Count)
system.cpu.idleCycles                           33834                       # Total number of cycles that the CPU has spent unscheduled due to idling (Cycle)
system.cpu.MemDepUnit__0.insertedLoads       81302786                       # Number of loads inserted to the mem dependence unit. (Count)
system.cpu.MemDepUnit__0.insertedStores      32390281                       # Number of stores inserted to the mem dependence unit. (Count)
system.cpu.MemDepUnit__0.conflictingLoads     13547918                       # Number of conflicting loads. (Count)
system.cpu.MemDepUnit__0.conflictingStores      9636637                       # Number of conflicting stores. (Count)
system.cpu.MemDepUnit__1.insertedLoads              0                       # Number of loads inserted to the mem dependence unit. (Count)
system.cpu.MemDepUnit__1.insertedStores             0                       # Number of stores inserted to the mem dependence unit. (Count)
system.cpu.MemDepUnit__1.conflictingLoads            0                       # Number of conflicting loads. (Count)
system.cpu.MemDepUnit__1.conflictingStores            0                       # Number of conflicting stores. (Count)
system.cpu.MemDepUnit__2.insertedLoads              0                       # Number of loads inserted to the mem dependence unit. (Count)
system.cpu.MemDepUnit__2.insertedStores             0                       # Number of stores inserted to the mem dependence unit. (Count)
system.cpu.MemDepUnit__2.conflictingLoads            0                       # Number of conflicting loads. (Count)
system.cpu.MemDepUnit__2.conflictingStores            0                       # Number of conflicting stores. (Count)
system.cpu.MemDepUnit__3.insertedLoads              0                       # Number of loads inserted to the mem dependence unit. (Count)
system.cpu.MemDepUnit__3.insertedStores             0                       # Number of stores inserted to the mem dependence unit. (Count)
system.cpu.MemDepUnit__3.conflictingLoads            0                       # Number of conflicting loads. (Count)
system.cpu.MemDepUnit__3.conflictingStores            0                       # Number of conflicting stores. (Count)
system.cpu.branchPred.lookups_0::NoBranch         2603      0.00%      0.00% # Number of BP lookups (Count)
system.cpu.branchPred.lookups_0::Return        734893      1.40%      1.40% # Number of BP lookups (Count)
system.cpu.branchPred.lookups_0::CallDirect       836516      1.59%      3.00% # Number of BP lookups (Count)
system.cpu.branchPred.lookups_0::CallIndirect         3840      0.01%      3.00% # Number of BP lookups (Count)
system.cpu.branchPred.lookups_0::DirectCond     48896500     93.09%     96.10% # Number of BP lookups (Count)
system.cpu.branchPred.lookups_0::DirectUncond      2018074      3.84%     99.94% # Number of BP lookups (Count)
system.cpu.branchPred.lookups_0::IndirectCond            0      0.00%     99.94% # Number of BP lookups (Count)
system.cpu.branchPred.lookups_0::IndirectUncond        31709      0.06%    100.00% # Number of BP lookups (Count)
system.cpu.branchPred.lookups_0::total       52524135                       # Number of BP lookups (Count)
system.cpu.branchPred.squashes_0::NoBranch         2322      0.01%      0.01% # Number of branches that got squashed (completely removed) as an earlier branch was mispredicted. (Count)
system.cpu.branchPred.squashes_0::Return       205703      0.86%      0.87% # Number of branches that got squashed (completely removed) as an earlier branch was mispredicted. (Count)
system.cpu.branchPred.squashes_0::CallDirect       310022      1.29%      2.16% # Number of branches that got squashed (completely removed) as an earlier branch was mispredicted. (Count)
system.cpu.branchPred.squashes_0::CallIndirect         1139      0.00%      2.16% # Number of branches that got squashed (completely removed) as an earlier branch was mispredicted. (Count)
system.cpu.branchPred.squashes_0::DirectCond     22549492     94.02%     96.19% # Number of branches that got squashed (completely removed) as an earlier branch was mispredicted. (Count)
system.cpu.branchPred.squashes_0::DirectUncond       898907      3.75%     99.93% # Number of branches that got squashed (completely removed) as an earlier branch was mispredicted. (Count)
system.cpu.branchPred.squashes_0::IndirectCond            0      0.00%     99.93% # Number of branches that got squashed (completely removed) as an earlier branch was mispredicted. (Count)
system.cpu.branchPred.squashes_0::IndirectUncond        15778      0.07%    100.00% # Number of branches that got squashed (completely removed) as an earlier branch was mispredicted. (Count)
system.cpu.branchPred.squashes_0::total      23983363                       # Number of branches that got squashed (completely removed) as an earlier branch was mispredicted. (Count)
system.cpu.branchPred.corrected_0::NoBranch          476      0.02%      0.02% # Number of branches that got corrected but not yet commited. Branches get corrected by decode or after execute. Also a branch misprediction can be detected out-of-order. Therefore, a corrected branch might not end up beeing committed in case an even earlier branch was mispredicted (Count)
system.cpu.branchPred.corrected_0::Return         1666      0.06%      0.08% # Number of branches that got corrected but not yet commited. Branches get corrected by decode or after execute. Also a branch misprediction can be detected out-of-order. Therefore, a corrected branch might not end up beeing committed in case an even earlier branch was mispredicted (Count)
system.cpu.branchPred.corrected_0::CallDirect         4571      0.16%      0.24% # Number of branches that got corrected but not yet commited. Branches get corrected by decode or after execute. Also a branch misprediction can be detected out-of-order. Therefore, a corrected branch might not end up beeing committed in case an even earlier branch was mispredicted (Count)
system.cpu.branchPred.corrected_0::CallIndirect          360      0.01%      0.25% # Number of branches that got corrected but not yet commited. Branches get corrected by decode or after execute. Also a branch misprediction can be detected out-of-order. Therefore, a corrected branch might not end up beeing committed in case an even earlier branch was mispredicted (Count)
system.cpu.branchPred.corrected_0::DirectCond      2770148     99.59%     99.84% # Number of branches that got corrected but not yet commited. Branches get corrected by decode or after execute. Also a branch misprediction can be detected out-of-order. Therefore, a corrected branch might not end up beeing committed in case an even earlier branch was mispredicted (Count)
system.cpu.branchPred.corrected_0::DirectUncond         1936      0.07%     99.91% # Number of branches that got corrected but not yet commited. Branches get corrected by decode or after execute. Also a branch misprediction can be detected out-of-order. Therefore, a corrected branch might not end up beeing committed in case an even earlier branch was mispredicted (Count)
system.cpu.branchPred.corrected_0::IndirectCond            0      0.00%     99.91% # Number of branches that got corrected but not yet commited. Branches get corrected by decode or after execute. Also a branch misprediction can be detected out-of-order. Therefore, a corrected branch might not end up beeing committed in case an even earlier branch was mispredicted (Count)
system.cpu.branchPred.corrected_0::IndirectUncond         2503      0.09%    100.00% # Number of branches that got corrected but not yet commited. Branches get corrected by decode or after execute. Also a branch misprediction can be detected out-of-order. Therefore, a corrected branch might not end up beeing committed in case an even earlier branch was mispredicted (Count)
system.cpu.branchPred.corrected_0::total      2781660                       # Number of branches that got corrected but not yet commited. Branches get corrected by decode or after execute. Also a branch misprediction can be detected out-of-order. Therefore, a corrected branch might not end up beeing committed in case an even earlier branch was mispredicted (Count)
system.cpu.branchPred.earlyResteers_0::NoBranch            0                       # Number of branches that got redirected after decode. (Count)
system.cpu.branchPred.earlyResteers_0::Return            0                       # Number of branches that got redirected after decode. (Count)
system.cpu.branchPred.earlyResteers_0::CallDirect            0                       # Number of branches that got redirected after decode. (Count)
system.cpu.branchPred.earlyResteers_0::CallIndirect            0                       # Number of branches that got redirected after decode. (Count)
system.cpu.branchPred.earlyResteers_0::DirectCond            0                       # Number of branches that got redirected after decode. (Count)
system.cpu.branchPred.earlyResteers_0::DirectUncond            0                       # Number of branches that got redirected after decode. (Count)
system.cpu.branchPred.earlyResteers_0::IndirectCond            0                       # Number of branches that got redirected after decode. (Count)
system.cpu.branchPred.earlyResteers_0::IndirectUncond            0                       # Number of branches that got redirected after decode. (Count)
system.cpu.branchPred.earlyResteers_0::total            0                       # Number of branches that got redirected after decode. (Count)
system.cpu.branchPred.committed_0::NoBranch          281      0.00%      0.00% # Number of branches finally committed  (Count)
system.cpu.branchPred.committed_0::Return       529189      1.85%      1.86% # Number of branches finally committed  (Count)
system.cpu.branchPred.committed_0::CallDirect       526493      1.84%      3.70% # Number of branches finally committed  (Count)
system.cpu.branchPred.committed_0::CallIndirect         2701      0.01%      3.71% # Number of branches finally committed  (Count)
system.cpu.branchPred.committed_0::DirectCond     26347008     92.31%     96.02% # Number of branches finally committed  (Count)
system.cpu.branchPred.committed_0::DirectUncond      1119167      3.92%     99.94% # Number of branches finally committed  (Count)
system.cpu.branchPred.committed_0::IndirectCond            0      0.00%     99.94% # Number of branches finally committed  (Count)
system.cpu.branchPred.committed_0::IndirectUncond        15931      0.06%    100.00% # Number of branches finally committed  (Count)
system.cpu.branchPred.committed_0::total     28540770                       # Number of branches finally committed  (Count)
system.cpu.branchPred.mispredicted_0::NoBranch          281      0.01%      0.01% # Number of committed branches that were mispredicted. (Count)
system.cpu.branchPred.mispredicted_0::Return         1597      0.06%      0.07% # Number of committed branches that were mispredicted. (Count)
system.cpu.branchPred.mispredicted_0::CallDirect         2604      0.10%      0.17% # Number of committed branches that were mispredicted. (Count)
system.cpu.branchPred.mispredicted_0::CallIndirect          319      0.01%      0.18% # Number of committed branches that were mispredicted. (Count)
system.cpu.branchPred.mispredicted_0::DirectCond      2639947     99.68%     99.86% # Number of committed branches that were mispredicted. (Count)
system.cpu.branchPred.mispredicted_0::DirectUncond         1242      0.05%     99.91% # Number of committed branches that were mispredicted. (Count)
system.cpu.branchPred.mispredicted_0::IndirectCond            0      0.00%     99.91% # Number of committed branches that were mispredicted. (Count)
system.cpu.branchPred.mispredicted_0::IndirectUncond         2340      0.09%    100.00% # Number of committed branches that were mispredicted. (Count)
system.cpu.branchPred.mispredicted_0::total      2648330                       # Number of committed branches that were mispredicted. (Count)
system.cpu.branchPred.targetProvider_0::NoTarget     21438474     40.82%     40.82% # The component providing the target for taken branches (Count)
system.cpu.branchPred.targetProvider_0::BTB     30330646     57.75%     98.56% # The component providing the target for taken branches (Count)
system.cpu.branchPred.targetProvider_0::RAS       734890      1.40%     99.96% # The component providing the target for taken branches (Count)
system.cpu.branchPred.targetProvider_0::Indirect        20125      0.04%    100.00% # The component providing the target for taken branches (Count)
system.cpu.branchPred.targetProvider_0::total     52524135                       # The component providing the target for taken branches (Count)
system.cpu.branchPred.targetWrong_0::NoBranch      1125668     41.36%     41.36% # Number of branches where the target was incorrect or not available at prediction time. (Count)
system.cpu.branchPred.targetWrong_0::Return      1593198     58.54%     99.91% # Number of branches where the target was incorrect or not available at prediction time. (Count)
system.cpu.branchPred.targetWrong_0::CallDirect         1666      0.06%     99.97% # Number of branches where the target was incorrect or not available at prediction time. (Count)
system.cpu.branchPred.targetWrong_0::CallIndirect          862      0.03%    100.00% # Number of branches where the target was incorrect or not available at prediction time. (Count)
system.cpu.branchPred.targetWrong_0::DirectCond            0      0.00%    100.00% # Number of branches where the target was incorrect or not available at prediction time. (Count)
system.cpu.branchPred.targetWrong_0::DirectUncond            0      0.00%    100.00% # Number of branches where the target was incorrect or not available at prediction time. (Count)
system.cpu.branchPred.targetWrong_0::IndirectCond            0      0.00%    100.00% # Number of branches where the target was incorrect or not available at prediction time. (Count)
system.cpu.branchPred.targetWrong_0::IndirectUncond            0      0.00%    100.00% # Number of branches where the target was incorrect or not available at prediction time. (Count)
system.cpu.branchPred.targetWrong_0::total      2721394                       # Number of branches where the target was incorrect or not available at prediction time. (Count)
system.cpu.branchPred.condPredicted          48899103                       # Number of conditional branches predicted (Count)
system.cpu.branchPred.condPredictedTaken     27526856                       # Number of conditional branches predicted as taken (Count)
system.cpu.branchPred.condIncorrect           2781660                       # Number of conditional branches incorrect (Count)
system.cpu.branchPred.predTakenBTBMiss           8770                       # Number of branches predicted taken but missed in BTB (Count)
system.cpu.branchPred.NotTakenMispredicted      1152462                       # Number branches predicted 'not taken' but turned out to be taken (Count)
system.cpu.branchPred.TakenMispredicted       1629198                       # Number branches predicted taken but are actually not taken (Count)
system.cpu.branchPred.BTBLookups             52524135                       # Number of BTB lookups (Count)
system.cpu.branchPred.BTBUpdates              1147457                       # Number of BTB updates (Count)
system.cpu.branchPred.BTBHits                48969532                       # Number of BTB hits (Count)
system.cpu.branchPred.BTBHitRatio            0.932324                       # BTB Hit Ratio (Ratio)
system.cpu.branchPred.BTBMispredicted           10278                       # Number BTB mispredictions. No target found or target wrong (Count)
system.cpu.branchPred.indirectLookups           35549                       # Number of indirect predictor lookups. (Count)
system.cpu.branchPred.indirectHits              20125                       # Number of indirect target hits. (Count)
system.cpu.branchPred.indirectMisses            15424                       # Number of indirect misses. (Count)
system.cpu.branchPred.indirectMispredicted            0                       # Number of mispredicted indirect branches. (Count)
system.cpu.branchPred.btb.lookups::NoBranch         2603      0.00%      0.00% # Number of BTB lookups (Count)
system.cpu.branchPred.btb.lookups::Return       734893      1.40%      1.40% # Number of BTB lookups (Count)
system.cpu.branchPred.btb.lookups::CallDirect       836516      1.59%      3.00% # Number of BTB lookups (Count)
system.cpu.branchPred.btb.lookups::CallIndirect         3840      0.01%      3.00% # Number of BTB lookups (Count)
system.cpu.branchPred.btb.lookups::DirectCond     48896500     93.09%     96.10% # Number of BTB lookups (Count)
system.cpu.branchPred.btb.lookups::DirectUncond      2018074      3.84%     99.94% # Number of BTB lookups (Count)
system.cpu.branchPred.btb.lookups::IndirectCond            0      0.00%     99.94% # Number of BTB lookups (Count)
system.cpu.branchPred.btb.lookups::IndirectUncond        31709      0.06%    100.00% # Number of BTB lookups (Count)
system.cpu.branchPred.btb.lookups::total     52524135                       # Number of BTB lookups (Count)
system.cpu.branchPred.btb.misses::NoBranch          540      0.02%      0.02% # Number of BTB misses (Count)
system.cpu.branchPred.btb.misses::Return       734432     20.66%     20.68% # Number of BTB misses (Count)
system.cpu.branchPred.btb.misses::CallDirect        12543      0.35%     21.03% # Number of BTB misses (Count)
system.cpu.branchPred.btb.misses::CallIndirect         3840      0.11%     21.14% # Number of BTB misses (Count)
system.cpu.branchPred.btb.misses::DirectCond      2760894     77.67%     98.81% # Number of BTB misses (Count)
system.cpu.branchPred.btb.misses::DirectUncond        10645      0.30%     99.11% # Number of BTB misses (Count)
system.cpu.branchPred.btb.misses::IndirectCond            0      0.00%     99.11% # Number of BTB misses (Count)
system.cpu.branchPred.btb.misses::IndirectUncond        31709      0.89%    100.00% # Number of BTB misses (Count)
system.cpu.branchPred.btb.misses::total       3554603                       # Number of BTB misses (Count)
system.cpu.branchPred.btb.updates::NoBranch            0      0.00%      0.00% # Number of BTB updates (Count)
system.cpu.branchPred.btb.updates::Return            0      0.00%      0.00% # Number of BTB updates (Count)
system.cpu.branchPred.btb.updates::CallDirect         4571      0.40%      0.40% # Number of BTB updates (Count)
system.cpu.branchPred.btb.updates::CallIndirect            0      0.00%      0.40% # Number of BTB updates (Count)
system.cpu.branchPred.btb.updates::DirectCond      1140950     99.43%     99.83% # Number of BTB updates (Count)
system.cpu.branchPred.btb.updates::DirectUncond         1936      0.17%    100.00% # Number of BTB updates (Count)
system.cpu.branchPred.btb.updates::IndirectCond            0      0.00%    100.00% # Number of BTB updates (Count)
system.cpu.branchPred.btb.updates::IndirectUncond            0      0.00%    100.00% # Number of BTB updates (Count)
system.cpu.branchPred.btb.updates::total      1147457                       # Number of BTB updates (Count)
system.cpu.branchPred.btb.mispredict::NoBranch            0      0.00%      0.00% # Number of BTB mispredictions. No target found or target wrong. (Count)
system.cpu.branchPred.btb.mispredict::Return            0      0.00%      0.00% # Number of BTB mispredictions. No target found or target wrong. (Count)
system.cpu.branchPred.btb.mispredict::CallDirect         4571      0.40%      0.40% # Number of BTB mispredictions. No target found or target wrong. (Count)
system.cpu.branchPred.btb.mispredict::CallIndirect            0      0.00%      0.40% # Number of BTB mispredictions. No target found or target wrong. (Count)
system.cpu.branchPred.btb.mispredict::DirectCond      1140950     99.43%     99.83% # Number of BTB mispredictions. No target found or target wrong. (Count)
system.cpu.branchPred.btb.mispredict::DirectUncond         1936      0.17%    100.00% # Number of BTB mispredictions. No target found or target wrong. (Count)
system.cpu.branchPred.btb.mispredict::IndirectCond            0      0.00%    100.00% # Number of BTB mispredictions. No target found or target wrong. (Count)
system.cpu.branchPred.btb.mispredict::IndirectUncond            0      0.00%    100.00% # Number of BTB mispredictions. No target found or target wrong. (Count)
system.cpu.branchPred.btb.mispredict::total      1147457                       # Number of BTB mispredictions. No target found or target wrong. (Count)
system.cpu.branchPred.btb.power_state.pwrStateResidencyTicks::UNDEFINED 2070933985356                       # Cumulative time (in ticks) in various power states (Tick)
system.cpu.branchPred.indirectBranchPred.lookups        35549                       # Number of lookups (Count)
system.cpu.branchPred.indirectBranchPred.hits        20125                       # Number of hits of a tag (Count)
system.cpu.branchPred.indirectBranchPred.misses        15424                       # Number of misses (Count)
system.cpu.branchPred.indirectBranchPred.targetRecords         2863                       # Number of targets that where recorded/installed in the cache (Count)
system.cpu.branchPred.indirectBranchPred.indirectRecords        38412                       # Number of indirect branches/calls recorded in the indirect hist (Count)
system.cpu.branchPred.indirectBranchPred.speculativeOverflows            3                       # Number of times more than the allowed capacity for speculative branches/calls where in flight and destroy the path history (Count)
system.cpu.branchPred.ras.pushes              1046059                       # Number of times a PC was pushed onto the RAS (Count)
system.cpu.branchPred.ras.pops                1046054                       # Number of times a PC was poped from the RAS (Count)
system.cpu.branchPred.ras.squashes             516864                       # Number of times the stack operation was squashed due to wrong speculation. (Count)
system.cpu.branchPred.ras.used                 529189                       # Number of times the RAS is the provider (Count)
system.cpu.branchPred.ras.correct              527592                       # Number of times the RAS is the provider and the prediction is correct (Count)
system.cpu.branchPred.ras.incorrect              1597                       # Number of times the RAS is the provider and the prediction is wrong (Count)
system.cpu.commit.commitSquashedInsts       154508684                       # The number of squashed insts skipped by commit (Count)
system.cpu.commit.commitNonSpecStalls          430363                       # The number of times commit has been forced to stall to communicate backwards (Count)
system.cpu.commit.branchMispredicts           2775071                       # The number of times a branch was mispredicted (Count)
system.cpu.commit.numCommittedDist::samples    134471562                       # Number of insts commited each cycle (Count)
system.cpu.commit.numCommittedDist::mean     2.753718                       # Number of insts commited each cycle (Count)
system.cpu.commit.numCommittedDist::stdev     3.045832                       # Number of insts commited each cycle (Count)
system.cpu.commit.numCommittedDist::underflows            0      0.00%      0.00% # Number of insts commited each cycle (Count)
system.cpu.commit.numCommittedDist::0        47155415     35.07%     35.07% # Number of insts commited each cycle (Count)
system.cpu.commit.numCommittedDist::1        22316727     16.60%     51.66% # Number of insts commited each cycle (Count)
system.cpu.commit.numCommittedDist::2        11564792      8.60%     60.26% # Number of insts commited each cycle (Count)
system.cpu.commit.numCommittedDist::3         9442014      7.02%     67.28% # Number of insts commited each cycle (Count)
system.cpu.commit.numCommittedDist::4         9031213      6.72%     74.00% # Number of insts commited each cycle (Count)
system.cpu.commit.numCommittedDist::5         2829039      2.10%     76.10% # Number of insts commited each cycle (Count)
system.cpu.commit.numCommittedDist::6         2007957      1.49%     77.60% # Number of insts commited each cycle (Count)
system.cpu.commit.numCommittedDist::7         6788675      5.05%     82.65% # Number of insts commited each cycle (Count)
system.cpu.commit.numCommittedDist::8        23335730     17.35%    100.00% # Number of insts commited each cycle (Count)
system.cpu.commit.numCommittedDist::overflows            0      0.00%    100.00% # Number of insts commited each cycle (Count)
system.cpu.commit.numCommittedDist::min_value            0                       # Number of insts commited each cycle (Count)
system.cpu.commit.numCommittedDist::max_value            8                       # Number of insts commited each cycle (Count)
system.cpu.commit.numCommittedDist::total    134471562                       # Number of insts commited each cycle (Count)
system.cpu.commit.amos                              0                       # Number of atomic instructions committed (Count)
system.cpu.commit.membars                      286310                       # Number of memory barriers committed (Count)
system.cpu.commit.functionCalls                529194                       # Number of function calls committed. (Count)
system.cpu.commit.committedInstType_0::No_OpClass      1093863      0.30%      0.30% # Class of committed instruction (Count)
system.cpu.commit.committedInstType_0::IntAlu    287867579     77.74%     78.04% # Class of committed instruction (Count)
system.cpu.commit.committedInstType_0::IntMult     12307280      3.32%     81.36% # Class of committed instruction (Count)
system.cpu.commit.committedInstType_0::IntDiv      2356405      0.64%     82.00% # Class of committed instruction (Count)
system.cpu.commit.committedInstType_0::FloatAdd        10196      0.00%     82.00% # Class of committed instruction (Count)
system.cpu.commit.committedInstType_0::FloatCmp            0      0.00%     82.00% # Class of committed instruction (Count)
system.cpu.commit.committedInstType_0::FloatCvt         1424      0.00%     82.00% # Class of committed instruction (Count)
system.cpu.commit.committedInstType_0::FloatMult            0      0.00%     82.00% # Class of committed instruction (Count)
system.cpu.commit.committedInstType_0::FloatMultAcc            0      0.00%     82.00% # Class of committed instruction (Count)
system.cpu.commit.committedInstType_0::FloatDiv            0      0.00%     82.00% # Class of committed instruction (Count)
system.cpu.commit.committedInstType_0::FloatMisc            0      0.00%     82.00% # Class of committed instruction (Count)
system.cpu.commit.committedInstType_0::FloatSqrt            0      0.00%     82.00% # Class of committed instruction (Count)
system.cpu.commit.committedInstType_0::SimdAdd         6952      0.00%     82.00% # Class of committed instruction (Count)
system.cpu.commit.committedInstType_0::SimdAddAcc            0      0.00%     82.00% # Class of committed instruction (Count)
system.cpu.commit.committedInstType_0::SimdAlu        20864      0.01%     82.01% # Class of committed instruction (Count)
system.cpu.commit.committedInstType_0::SimdCmp           36      0.00%     82.01% # Class of committed instruction (Count)
system.cpu.commit.committedInstType_0::SimdCvt        16402      0.00%     82.01% # Class of committed instruction (Count)
system.cpu.commit.committedInstType_0::SimdMisc        21881      0.01%     82.02% # Class of committed instruction (Count)
system.cpu.commit.committedInstType_0::SimdMult            0      0.00%     82.02% # Class of committed instruction (Count)
system.cpu.commit.committedInstType_0::SimdMultAcc            0      0.00%     82.02% # Class of committed instruction (Count)
system.cpu.commit.committedInstType_0::SimdMatMultAcc            0      0.00%     82.02% # Class of committed instruction (Count)
system.cpu.commit.committedInstType_0::SimdShift         1961      0.00%     82.02% # Class of committed instruction (Count)
system.cpu.commit.committedInstType_0::SimdShiftAcc            0      0.00%     82.02% # Class of committed instruction (Count)
system.cpu.commit.committedInstType_0::SimdDiv            0      0.00%     82.02% # Class of committed instruction (Count)
system.cpu.commit.committedInstType_0::SimdSqrt            0      0.00%     82.02% # Class of committed instruction (Count)
system.cpu.commit.committedInstType_0::SimdFloatAdd          947      0.00%     82.02% # Class of committed instruction (Count)
system.cpu.commit.committedInstType_0::SimdFloatAlu            0      0.00%     82.02% # Class of committed instruction (Count)
system.cpu.commit.committedInstType_0::SimdFloatCmp            0      0.00%     82.02% # Class of committed instruction (Count)
system.cpu.commit.committedInstType_0::SimdFloatCvt         1413      0.00%     82.02% # Class of committed instruction (Count)
system.cpu.commit.committedInstType_0::SimdFloatDiv          207      0.00%     82.02% # Class of committed instruction (Count)
system.cpu.commit.committedInstType_0::SimdFloatMisc            0      0.00%     82.02% # Class of committed instruction (Count)
system.cpu.commit.committedInstType_0::SimdFloatMult          493      0.00%     82.02% # Class of committed instruction (Count)
system.cpu.commit.committedInstType_0::SimdFloatMultAcc            0      0.00%     82.02% # Class of committed instruction (Count)
system.cpu.commit.committedInstType_0::SimdFloatMatMultAcc            0      0.00%     82.02% # Class of committed instruction (Count)
system.cpu.commit.committedInstType_0::SimdFloatSqrt           82      0.00%     82.02% # Class of committed instruction (Count)
system.cpu.commit.committedInstType_0::SimdReduceAdd            0      0.00%     82.02% # Class of committed instruction (Count)
system.cpu.commit.committedInstType_0::SimdReduceAlu            0      0.00%     82.02% # Class of committed instruction (Count)
system.cpu.commit.committedInstType_0::SimdReduceCmp            0      0.00%     82.02% # Class of committed instruction (Count)
system.cpu.commit.committedInstType_0::SimdFloatReduceAdd            0      0.00%     82.02% # Class of committed instruction (Count)
system.cpu.commit.committedInstType_0::SimdFloatReduceCmp            0      0.00%     82.02% # Class of committed instruction (Count)
system.cpu.commit.committedInstType_0::SimdAes            0      0.00%     82.02% # Class of committed instruction (Count)
system.cpu.commit.committedInstType_0::SimdAesMix            0      0.00%     82.02% # Class of committed instruction (Count)
system.cpu.commit.committedInstType_0::SimdSha1Hash            0      0.00%     82.02% # Class of committed instruction (Count)
system.cpu.commit.committedInstType_0::SimdSha1Hash2            0      0.00%     82.02% # Class of committed instruction (Count)
system.cpu.commit.committedInstType_0::SimdSha256Hash            0      0.00%     82.02% # Class of committed instruction (Count)
system.cpu.commit.committedInstType_0::SimdSha256Hash2            0      0.00%     82.02% # Class of committed instruction (Count)
system.cpu.commit.committedInstType_0::SimdShaSigma2            0      0.00%     82.02% # Class of committed instruction (Count)
system.cpu.commit.committedInstType_0::SimdShaSigma3            0      0.00%     82.02% # Class of committed instruction (Count)
system.cpu.commit.committedInstType_0::SimdPredAlu            0      0.00%     82.02% # Class of committed instruction (Count)
system.cpu.commit.committedInstType_0::Matrix            0      0.00%     82.02% # Class of committed instruction (Count)
system.cpu.commit.committedInstType_0::MatrixMov            0      0.00%     82.02% # Class of committed instruction (Count)
system.cpu.commit.committedInstType_0::MatrixOP            0      0.00%     82.02% # Class of committed instruction (Count)
system.cpu.commit.committedInstType_0::MemRead     45267344     12.22%     94.24% # Class of committed instruction (Count)
system.cpu.commit.committedInstType_0::MemWrite     15539199      4.20%     98.44% # Class of committed instruction (Count)
system.cpu.commit.committedInstType_0::FloatMemRead      2870554      0.78%     99.21% # Class of committed instruction (Count)
system.cpu.commit.committedInstType_0::FloatMemWrite      2911625      0.79%    100.00% # Class of committed instruction (Count)
system.cpu.commit.committedInstType_0::IprAccess            0      0.00%    100.00% # Class of committed instruction (Count)
system.cpu.commit.committedInstType_0::InstPrefetch            0      0.00%    100.00% # Class of committed instruction (Count)
system.cpu.commit.committedInstType_0::SimdUnitStrideLoad            0      0.00%    100.00% # Class of committed instruction (Count)
system.cpu.commit.committedInstType_0::SimdUnitStrideStore            0      0.00%    100.00% # Class of committed instruction (Count)
system.cpu.commit.committedInstType_0::SimdUnitStrideMaskLoad            0      0.00%    100.00% # Class of committed instruction (Count)
system.cpu.commit.committedInstType_0::SimdUnitStrideMaskStore            0      0.00%    100.00% # Class of committed instruction (Count)
system.cpu.commit.committedInstType_0::SimdStridedLoad            0      0.00%    100.00% # Class of committed instruction (Count)
system.cpu.commit.committedInstType_0::SimdStridedStore            0      0.00%    100.00% # Class of committed instruction (Count)
system.cpu.commit.committedInstType_0::SimdIndexedLoad            0      0.00%    100.00% # Class of committed instruction (Count)
system.cpu.commit.committedInstType_0::SimdIndexedStore            0      0.00%    100.00% # Class of committed instruction (Count)
system.cpu.commit.committedInstType_0::SimdWholeRegisterLoad            0      0.00%    100.00% # Class of committed instruction (Count)
system.cpu.commit.committedInstType_0::SimdWholeRegisterStore            0      0.00%    100.00% # Class of committed instruction (Count)
system.cpu.commit.committedInstType_0::SimdUnitStrideFaultOnlyFirstLoad            0      0.00%    100.00% # Class of committed instruction (Count)
system.cpu.commit.committedInstType_0::SimdUnitStrideSegmentedLoad            0      0.00%    100.00% # Class of committed instruction (Count)
system.cpu.commit.committedInstType_0::SimdUnitStrideSegmentedStore            0      0.00%    100.00% # Class of committed instruction (Count)
system.cpu.commit.committedInstType_0::SimdExt            0      0.00%    100.00% # Class of committed instruction (Count)
system.cpu.commit.committedInstType_0::SimdFloatExt            0      0.00%    100.00% # Class of committed instruction (Count)
system.cpu.commit.committedInstType_0::SimdConfig            0      0.00%    100.00% # Class of committed instruction (Count)
system.cpu.commit.committedInstType_0::total    370296707                       # Class of committed instruction (Count)
system.cpu.commit.commitEligibleSamples      23335730                       # number cycles where commit BW limit reached (Cycle)
system.cpu.commitStats0.numInsts            230516008                       # Number of instructions committed (thread level) (Count)
system.cpu.commitStats0.numOps              370296707                       # Number of ops (including micro ops) committed (thread level) (Count)
system.cpu.commitStats0.numInstsNotNOP      230516008                       # Number of instructions committed excluding NOPs or prefetches (Count)
system.cpu.commitStats0.numOpsNotNOP        370296707                       # Number of Ops (including micro ops) Simulated (Count)
system.cpu.commitStats0.cpi                  0.673810                       # CPI: cycles per instruction (thread level) ((Cycle/Count))
system.cpu.commitStats0.ipc                  1.484098                       # IPC: instructions per cycle (thread level) ((Count/Cycle))
system.cpu.commitStats0.numMemRefs           66588722                       # Number of memory references committed (Count)
system.cpu.commitStats0.numFpInsts            5872517                       # Number of float instructions (Count)
system.cpu.commitStats0.numIntInsts         368270021                       # Number of integer instructions (Count)
system.cpu.commitStats0.numLoadInsts         48137898                       # Number of load instructions (Count)
system.cpu.commitStats0.numStoreInsts        18450824                       # Number of store instructions (Count)
system.cpu.commitStats0.numVecInsts                 0                       # Number of vector instructions (Count)
system.cpu.commitStats0.committedInstType::No_OpClass      1093863      0.30%      0.30% # Class of committed instruction. (Count)
system.cpu.commitStats0.committedInstType::IntAlu    287867579     77.74%     78.04% # Class of committed instruction. (Count)
system.cpu.commitStats0.committedInstType::IntMult     12307280      3.32%     81.36% # Class of committed instruction. (Count)
system.cpu.commitStats0.committedInstType::IntDiv      2356405      0.64%     82.00% # Class of committed instruction. (Count)
system.cpu.commitStats0.committedInstType::FloatAdd        10196      0.00%     82.00% # Class of committed instruction. (Count)
system.cpu.commitStats0.committedInstType::FloatCmp            0      0.00%     82.00% # Class of committed instruction. (Count)
system.cpu.commitStats0.committedInstType::FloatCvt         1424      0.00%     82.00% # Class of committed instruction. (Count)
system.cpu.commitStats0.committedInstType::FloatMult            0      0.00%     82.00% # Class of committed instruction. (Count)
system.cpu.commitStats0.committedInstType::FloatMultAcc            0      0.00%     82.00% # Class of committed instruction. (Count)
system.cpu.commitStats0.committedInstType::FloatDiv            0      0.00%     82.00% # Class of committed instruction. (Count)
system.cpu.commitStats0.committedInstType::FloatMisc            0      0.00%     82.00% # Class of committed instruction. (Count)
system.cpu.commitStats0.committedInstType::FloatSqrt            0      0.00%     82.00% # Class of committed instruction. (Count)
system.cpu.commitStats0.committedInstType::SimdAdd         6952      0.00%     82.00% # Class of committed instruction. (Count)
system.cpu.commitStats0.committedInstType::SimdAddAcc            0      0.00%     82.00% # Class of committed instruction. (Count)
system.cpu.commitStats0.committedInstType::SimdAlu        20864      0.01%     82.01% # Class of committed instruction. (Count)
system.cpu.commitStats0.committedInstType::SimdCmp           36      0.00%     82.01% # Class of committed instruction. (Count)
system.cpu.commitStats0.committedInstType::SimdCvt        16402      0.00%     82.01% # Class of committed instruction. (Count)
system.cpu.commitStats0.committedInstType::SimdMisc        21881      0.01%     82.02% # Class of committed instruction. (Count)
system.cpu.commitStats0.committedInstType::SimdMult            0      0.00%     82.02% # Class of committed instruction. (Count)
system.cpu.commitStats0.committedInstType::SimdMultAcc            0      0.00%     82.02% # Class of committed instruction. (Count)
system.cpu.commitStats0.committedInstType::SimdMatMultAcc            0      0.00%     82.02% # Class of committed instruction. (Count)
system.cpu.commitStats0.committedInstType::SimdShift         1961      0.00%     82.02% # Class of committed instruction. (Count)
system.cpu.commitStats0.committedInstType::SimdShiftAcc            0      0.00%     82.02% # Class of committed instruction. (Count)
system.cpu.commitStats0.committedInstType::SimdDiv            0      0.00%     82.02% # Class of committed instruction. (Count)
system.cpu.commitStats0.committedInstType::SimdSqrt            0      0.00%     82.02% # Class of committed instruction. (Count)
system.cpu.commitStats0.committedInstType::SimdFloatAdd          947      0.00%     82.02% # Class of committed instruction. (Count)
system.cpu.commitStats0.committedInstType::SimdFloatAlu            0      0.00%     82.02% # Class of committed instruction. (Count)
system.cpu.commitStats0.committedInstType::SimdFloatCmp            0      0.00%     82.02% # Class of committed instruction. (Count)
system.cpu.commitStats0.committedInstType::SimdFloatCvt         1413      0.00%     82.02% # Class of committed instruction. (Count)
system.cpu.commitStats0.committedInstType::SimdFloatDiv          207      0.00%     82.02% # Class of committed instruction. (Count)
system.cpu.commitStats0.committedInstType::SimdFloatMisc            0      0.00%     82.02% # Class of committed instruction. (Count)
system.cpu.commitStats0.committedInstType::SimdFloatMult          493      0.00%     82.02% # Class of committed instruction. (Count)
system.cpu.commitStats0.committedInstType::SimdFloatMultAcc            0      0.00%     82.02% # Class of committed instruction. (Count)
system.cpu.commitStats0.committedInstType::SimdFloatMatMultAcc            0      0.00%     82.02% # Class of committed instruction. (Count)
system.cpu.commitStats0.committedInstType::SimdFloatSqrt           82      0.00%     82.02% # Class of committed instruction. (Count)
system.cpu.commitStats0.committedInstType::SimdReduceAdd            0      0.00%     82.02% # Class of committed instruction. (Count)
system.cpu.commitStats0.committedInstType::SimdReduceAlu            0      0.00%     82.02% # Class of committed instruction. (Count)
system.cpu.commitStats0.committedInstType::SimdReduceCmp            0      0.00%     82.02% # Class of committed instruction. (Count)
system.cpu.commitStats0.committedInstType::SimdFloatReduceAdd            0      0.00%     82.02% # Class of committed instruction. (Count)
system.cpu.commitStats0.committedInstType::SimdFloatReduceCmp            0      0.00%     82.02% # Class of committed instruction. (Count)
system.cpu.commitStats0.committedInstType::SimdAes            0      0.00%     82.02% # Class of committed instruction. (Count)
system.cpu.commitStats0.committedInstType::SimdAesMix            0      0.00%     82.02% # Class of committed instruction. (Count)
system.cpu.commitStats0.committedInstType::SimdSha1Hash            0      0.00%     82.02% # Class of committed instruction. (Count)
system.cpu.commitStats0.committedInstType::SimdSha1Hash2            0      0.00%     82.02% # Class of committed instruction. (Count)
system.cpu.commitStats0.committedInstType::SimdSha256Hash            0      0.00%     82.02% # Class of committed instruction. (Count)
system.cpu.commitStats0.committedInstType::SimdSha256Hash2            0      0.00%     82.02% # Class of committed instruction. (Count)
system.cpu.commitStats0.committedInstType::SimdShaSigma2            0      0.00%     82.02% # Class of committed instruction. (Count)
system.cpu.commitStats0.committedInstType::SimdShaSigma3            0      0.00%     82.02% # Class of committed instruction. (Count)
system.cpu.commitStats0.committedInstType::SimdPredAlu            0      0.00%     82.02% # Class of committed instruction. (Count)
system.cpu.commitStats0.committedInstType::Matrix            0      0.00%     82.02% # Class of committed instruction. (Count)
system.cpu.commitStats0.committedInstType::MatrixMov            0      0.00%     82.02% # Class of committed instruction. (Count)
system.cpu.commitStats0.committedInstType::MatrixOP            0      0.00%     82.02% # Class of committed instruction. (Count)
system.cpu.commitStats0.committedInstType::MemRead     45267344     12.22%     94.24% # Class of committed instruction. (Count)
system.cpu.commitStats0.committedInstType::MemWrite     15539199      4.20%     98.44% # Class of committed instruction. (Count)
system.cpu.commitStats0.committedInstType::FloatMemRead      2870554      0.78%     99.21% # Class of committed instruction. (Count)
system.cpu.commitStats0.committedInstType::FloatMemWrite      2911625      0.79%    100.00% # Class of committed instruction. (Count)
system.cpu.commitStats0.committedInstType::IprAccess            0      0.00%    100.00% # Class of committed instruction. (Count)
system.cpu.commitStats0.committedInstType::InstPrefetch            0      0.00%    100.00% # Class of committed instruction. (Count)
system.cpu.commitStats0.committedInstType::SimdUnitStrideLoad            0      0.00%    100.00% # Class of committed instruction. (Count)
system.cpu.commitStats0.committedInstType::SimdUnitStrideStore            0      0.00%    100.00% # Class of committed instruction. (Count)
system.cpu.commitStats0.committedInstType::SimdUnitStrideMaskLoad            0      0.00%    100.00% # Class of committed instruction. (Count)
system.cpu.commitStats0.committedInstType::SimdUnitStrideMaskStore            0      0.00%    100.00% # Class of committed instruction. (Count)
system.cpu.commitStats0.committedInstType::SimdStridedLoad            0      0.00%    100.00% # Class of committed instruction. (Count)
system.cpu.commitStats0.committedInstType::SimdStridedStore            0      0.00%    100.00% # Class of committed instruction. (Count)
system.cpu.commitStats0.committedInstType::SimdIndexedLoad            0      0.00%    100.00% # Class of committed instruction. (Count)
system.cpu.commitStats0.committedInstType::SimdIndexedStore            0      0.00%    100.00% # Class of committed instruction. (Count)
system.cpu.commitStats0.committedInstType::SimdWholeRegisterLoad            0      0.00%    100.00% # Class of committed instruction. (Count)
system.cpu.commitStats0.committedInstType::SimdWholeRegisterStore            0      0.00%    100.00% # Class of committed instruction. (Count)
system.cpu.commitStats0.committedInstType::SimdUnitStrideFaultOnlyFirstLoad            0      0.00%    100.00% # Class of committed instruction. (Count)
system.cpu.commitStats0.committedInstType::SimdUnitStrideSegmentedLoad            0      0.00%    100.00% # Class of committed instruction. (Count)
system.cpu.commitStats0.committedInstType::SimdUnitStrideSegmentedStore            0      0.00%    100.00% # Class of committed instruction. (Count)
system.cpu.commitStats0.committedInstType::SimdExt            0      0.00%    100.00% # Class of committed instruction. (Count)
system.cpu.commitStats0.committedInstType::SimdFloatExt            0      0.00%    100.00% # Class of committed instruction. (Count)
system.cpu.commitStats0.committedInstType::SimdConfig            0      0.00%    100.00% # Class of committed instruction. (Count)
system.cpu.commitStats0.committedInstType::total    370296707                       # Class of committed instruction. (Count)
system.cpu.commitStats0.committedControl::IsControl     28540770                       # Class of control type instructions committed (Count)
system.cpu.commitStats0.committedControl::IsDirectControl     27992668                       # Class of control type instructions committed (Count)
system.cpu.commitStats0.committedControl::IsIndirectControl       547821                       # Class of control type instructions committed (Count)
system.cpu.commitStats0.committedControl::IsCondControl     26347008                       # Class of control type instructions committed (Count)
system.cpu.commitStats0.committedControl::IsUncondControl      2193481                       # Class of control type instructions committed (Count)
system.cpu.commitStats0.committedControl::IsCall       529194                       # Class of control type instructions committed (Count)
system.cpu.commitStats0.committedControl::IsReturn       529189                       # Class of control type instructions committed (Count)
system.cpu.decode.idleCycles                 15542310                       # Number of cycles decode is idle (Cycle)
system.cpu.decode.blockedCycles              60489872                       # Number of cycles decode is blocked (Cycle)
system.cpu.decode.runCycles                  53505890                       # Number of cycles decode is running (Cycle)
system.cpu.decode.unblockCycles              22872480                       # Number of cycles decode is unblocking (Cycle)
system.cpu.decode.squashCycles                2879547                       # Number of cycles decode is squashing (Cycle)
system.cpu.decode.branchResolved             28107939                       # Number of times decode resolved a branch (Count)
system.cpu.decode.branchMispred                  7110                       # Number of times decode detected a branch misprediction (Count)
system.cpu.decode.decodedInsts              578901177                       # Number of instructions handled by decode (Count)
system.cpu.decode.squashedInsts                 36646                       # Number of squashed instructions handled by decode (Count)
system.cpu.executeStats0.numInsts           465952672                       # Number of executed instructions (Count)
system.cpu.executeStats0.numNop                     0                       # Number of nop insts executed (Count)
system.cpu.executeStats0.numBranches         34218109                       # Number of branches executed (Count)
system.cpu.executeStats0.numLoadInsts        69518925                       # Number of load instructions executed (Count)
system.cpu.executeStats0.numStoreInsts       24143633                       # Number of stores executed (Count)
system.cpu.executeStats0.instRate            2.999877                       # Inst execution rate ((Count/Cycle))
system.cpu.executeStats0.numCCRegReads      218864382                       # Number of times the CC registers were read (Count)
system.cpu.executeStats0.numCCRegWrites     231118489                       # Number of times the CC registers were written (Count)
system.cpu.executeStats0.numFpRegReads        4494310                       # Number of times the floating registers were read (Count)
system.cpu.executeStats0.numFpRegWrites       5527292                       # Number of times the floating registers were written (Count)
system.cpu.executeStats0.numIntRegReads     615679643                       # Number of times the integer registers were read (Count)
system.cpu.executeStats0.numIntRegWrites    372232201                       # Number of times the integer registers were written (Count)
system.cpu.executeStats0.numMemRefs          93662558                       # Number of memory refs (Count)
system.cpu.executeStats0.numMiscRegReads    167369150                       # Number of times the Misc registers were read (Count)
system.cpu.executeStats0.numMiscRegWrites          801                       # Number of times the Misc registers were written (Count)
system.cpu.executeStats0.numVecAluAccesses            0                       # Number of vector alu accesses (Count)
system.cpu.executeStats0.numDiscardedOps            0                       # Number of ops (including micro ops) which were discarded before commit (Count)
system.cpu.fetch.predictedBranches           31085661                       # Number of branches that fetch has predicted taken (Count)
system.cpu.fetch.cycles                     149700315                       # Number of cycles fetch has run and was not squashing or blocked (Cycle)
system.cpu.fetch.squashCycles                 5772848                       # Number of cycles fetch has spent squashing (Cycle)
system.cpu.fetch.miscStallCycles                  381                       # Number of cycles fetch has spent waiting on interrupts, or bad addresses, or out of MSHRs (Cycle)
system.cpu.fetch.pendingTrapStallCycles          4212                       # Number of stall cycles due to pending traps (Cycle)
system.cpu.fetch.cacheLines                  30849166                       # Number of cache lines fetched (Count)
[...]
system.mem_ctrl.dram.bwInstRead::total       72958834                       # Instruction read bandwidth from this memory ((Byte/Second))
system.mem_ctrl.dram.bwWrite::writebacks    195532495                       # Write bandwidth from this memory ((Byte/Second))
system.mem_ctrl.dram.bwWrite::total         195532495                       # Write bandwidth from this memory ((Byte/Second))
system.mem_ctrl.dram.bwTotal::writebacks    195532495                       # Total bandwidth to/from this memory ((Byte/Second))
system.mem_ctrl.dram.bwTotal::cpu.inst       72958834                       # Total bandwidth to/from this memory ((Byte/Second))
system.mem_ctrl.dram.bwTotal::cpu.data      126664152                       # Total bandwidth to/from this memory ((Byte/Second))
system.mem_ctrl.dram.bwTotal::cpu.l1d.prefetcher    350689029                       # Total bandwidth to/from this memory ((Byte/Second))
system.mem_ctrl.dram.bwTotal::cpu.l1i.prefetcher    207204498                       # Total bandwidth to/from this memory ((Byte/Second))
system.mem_ctrl.dram.bwTotal::total         953049009                       # Total bandwidth to/from this memory ((Byte/Second))
system.mem_ctrl.dram.readBursts                 20271                       # Number of DRAM read bursts (Count)
system.mem_ctrl.dram.writeBursts                 4866                       # Number of DRAM write bursts (Count)
system.mem_ctrl.dram.perBankRdBursts::0          1172                       # Per bank write bursts (Count)
system.mem_ctrl.dram.perBankRdBursts::1           735                       # Per bank write bursts (Count)
system.mem_ctrl.dram.perBankRdBursts::2           931                       # Per bank write bursts (Count)
system.mem_ctrl.dram.perBankRdBursts::3          1429                       # Per bank write bursts (Count)
system.mem_ctrl.dram.perBankRdBursts::4          1400                       # Per bank write bursts (Count)
system.mem_ctrl.dram.perBankRdBursts::5          1945                       # Per bank write bursts (Count)
system.mem_ctrl.dram.perBankRdBursts::6          1929                       # Per bank write bursts (Count)
system.mem_ctrl.dram.perBankRdBursts::7          1726                       # Per bank write bursts (Count)
system.mem_ctrl.dram.perBankRdBursts::8           771                       # Per bank write bursts (Count)
system.mem_ctrl.dram.perBankRdBursts::9           821                       # Per bank write bursts (Count)
system.mem_ctrl.dram.perBankRdBursts::10         1347                       # Per bank write bursts (Count)
system.mem_ctrl.dram.perBankRdBursts::11         1113                       # Per bank write bursts (Count)
system.mem_ctrl.dram.perBankRdBursts::12          970                       # Per bank write bursts (Count)
system.mem_ctrl.dram.perBankRdBursts::13          928                       # Per bank write bursts (Count)
system.mem_ctrl.dram.perBankRdBursts::14         2042                       # Per bank write bursts (Count)
system.mem_ctrl.dram.perBankRdBursts::15         1012                       # Per bank write bursts (Count)
system.mem_ctrl.dram.perBankWrBursts::0           281                       # Per bank write bursts (Count)
system.mem_ctrl.dram.perBankWrBursts::1           265                       # Per bank write bursts (Count)
system.mem_ctrl.dram.perBankWrBursts::2           259                       # Per bank write bursts (Count)
system.mem_ctrl.dram.perBankWrBursts::3           283                       # Per bank write bursts (Count)
system.mem_ctrl.dram.perBankWrBursts::4           278                       # Per bank write bursts (Count)
system.mem_ctrl.dram.perBankWrBursts::5           281                       # Per bank write bursts (Count)
system.mem_ctrl.dram.perBankWrBursts::6           641                       # Per bank write bursts (Count)
system.mem_ctrl.dram.perBankWrBursts::7           325                       # Per bank write bursts (Count)
system.mem_ctrl.dram.perBankWrBursts::8           256                       # Per bank write bursts (Count)
system.mem_ctrl.dram.perBankWrBursts::9           260                       # Per bank write bursts (Count)
system.mem_ctrl.dram.perBankWrBursts::10          315                       # Per bank write bursts (Count)
system.mem_ctrl.dram.perBankWrBursts::11          315                       # Per bank write bursts (Count)
system.mem_ctrl.dram.perBankWrBursts::12          267                       # Per bank write bursts (Count)
system.mem_ctrl.dram.perBankWrBursts::13          291                       # Per bank write bursts (Count)
system.mem_ctrl.dram.perBankWrBursts::14          293                       # Per bank write bursts (Count)
system.mem_ctrl.dram.perBankWrBursts::15          256                       # Per bank write bursts (Count)
system.mem_ctrl.dram.totQLat                255442271                       # Total ticks spent queuing (Tick)
system.mem_ctrl.dram.totBusLat              101355000                       # Total ticks spent in databus transfers (Tick)
system.mem_ctrl.dram.totMemAccLat           635523521                       # Total ticks spent from burst creation until serviced by the DRAM (Tick)
system.mem_ctrl.dram.avgQLat                 12601.37                       # Average queueing delay per DRAM burst ((Tick/Count))
system.mem_ctrl.dram.avgBusLat                5000.00                       # Average bus latency per DRAM burst ((Tick/Count))
system.mem_ctrl.dram.avgMemAccLat            31351.37                       # Average memory access latency per DRAM burst ((Tick/Count))
system.mem_ctrl.dram.readRowHits                16312                       # Number of row buffer hits during reads (Count)
system.mem_ctrl.dram.writeRowHits                4444                       # Number of row buffer hits during writes (Count)
system.mem_ctrl.dram.readRowHitRate             80.47                       # Row buffer hit rate for reads (Ratio)
system.mem_ctrl.dram.writeRowHitRate            91.33                       # Row buffer hit rate for writes (Ratio)
system.mem_ctrl.dram.bytesPerActivate::samples         4379                       # Bytes accessed per row activation (Byte)
system.mem_ctrl.dram.bytesPerActivate::mean   367.250971                       # Bytes accessed per row activation (Byte)
system.mem_ctrl.dram.bytesPerActivate::gmean   263.976820                       # Bytes accessed per row activation (Byte)
system.mem_ctrl.dram.bytesPerActivate::stdev   305.843216                       # Bytes accessed per row activation (Byte)
system.mem_ctrl.dram.bytesPerActivate::0-127          538     12.29%     12.29% # Bytes accessed per row activation (Byte)
system.mem_ctrl.dram.bytesPerActivate::128-255         1606     36.68%     48.96% # Bytes accessed per row activation (Byte)
system.mem_ctrl.dram.bytesPerActivate::256-383          713     16.28%     65.24% # Bytes accessed per row activation (Byte)
system.mem_ctrl.dram.bytesPerActivate::384-511          458     10.46%     75.70% # Bytes accessed per row activation (Byte)
system.mem_ctrl.dram.bytesPerActivate::512-639          195      4.45%     80.16% # Bytes accessed per row activation (Byte)
system.mem_ctrl.dram.bytesPerActivate::640-767          179      4.09%     84.24% # Bytes accessed per row activation (Byte)
system.mem_ctrl.dram.bytesPerActivate::768-895           84      1.92%     86.16% # Bytes accessed per row activation (Byte)
system.mem_ctrl.dram.bytesPerActivate::896-1023           65      1.48%     87.65% # Bytes accessed per row activation (Byte)
system.mem_ctrl.dram.bytesPerActivate::1024-1151          541     12.35%    100.00% # Bytes accessed per row activation (Byte)
system.mem_ctrl.dram.bytesPerActivate::total         4379                       # Bytes accessed per row activation (Byte)
system.mem_ctrl.dram.dramBytesRead            1297344                       # Total bytes read (Byte)
system.mem_ctrl.dram.dramBytesWritten          311424                       # Total bytes written (Byte)
system.mem_ctrl.dram.avgRdBW               714.813204                       # Average DRAM read bandwidth in MiBytes/s ((Byte/Second))
system.mem_ctrl.dram.avgWrBW               171.589021                       # Average DRAM write bandwidth in MiBytes/s ((Byte/Second))
system.mem_ctrl.dram.peakBW                  12800.00                       # Theoretical peak bandwidth in MiByte/s ((Byte/Second))
system.mem_ctrl.dram.busUtil                     6.93                       # Data bus utilization in percentage (Ratio)
system.mem_ctrl.dram.busUtilRead                 5.58                       # Data bus utilization in percentage for reads (Ratio)
system.mem_ctrl.dram.busUtilWrite                1.34                       # Data bus utilization in percentage for writes (Ratio)
system.mem_ctrl.dram.pageHitRate                82.57                       # Row buffer hit rate, read and write combined (Ratio)
system.mem_ctrl.dram.power_state.pwrStateResidencyTicks::UNDEFINED   1814941292                       # Cumulative time (in ticks) in various power states (Tick)
system.mem_ctrl.dram.rank0.actEnergy         18321240                       # Energy for activate commands per rank (pJ) (Joule)
system.mem_ctrl.dram.rank0.preEnergy          9730380                       # Energy for precharge commands per rank (pJ) (Joule)
system.mem_ctrl.dram.rank0.readEnergy        80446380                       # Energy for read commands per rank (pJ) (Joule)
system.mem_ctrl.dram.rank0.writeEnergy       13639860                       # Energy for write commands per rank (pJ) (Joule)
system.mem_ctrl.dram.rank0.refreshEnergy 143211120.000000                       # Energy for refresh commands per rank (pJ) (Joule)
system.mem_ctrl.dram.rank0.actBackEnergy    725745090                       # Energy for active background per rank (pJ) (Joule)
system.mem_ctrl.dram.rank0.preBackEnergy     85697280                       # Energy for precharge background per rank (pJ) (Joule)
system.mem_ctrl.dram.rank0.actPowerDownEnergy            0                       # Energy for active power-down per rank (pJ) (Joule)
system.mem_ctrl.dram.rank0.prePowerDownEnergy            0                       # Energy for precharge power-down per rank (pJ) (Joule)
system.mem_ctrl.dram.rank0.selfRefreshEnergy            0                       # Energy for self refresh per rank (pJ) (Joule)
system.mem_ctrl.dram.rank0.totalEnergy     1076791350                       # Total energy per rank (pJ) (Joule)
system.mem_ctrl.dram.rank0.averagePower    593.292662                       # Core power per rank (mW) (Watt)
system.mem_ctrl.dram.rank0.totalIdleTime            0                       # Total Idle time Per DRAM Rank (Tick)
system.mem_ctrl.dram.rank0.pwrStateTime::IDLE    216109185                       # Time in different power states (Tick)
system.mem_ctrl.dram.rank0.pwrStateTime::REF     60819883                       # Time in different power states (Tick)
system.mem_ctrl.dram.rank0.pwrStateTime::SREF            0                       # Time in different power states (Tick)
system.mem_ctrl.dram.rank0.pwrStateTime::PRE_PDN            0                       # Time in different power states (Tick)
system.mem_ctrl.dram.rank0.pwrStateTime::ACT   1538012224                       # Time in different power states (Tick)
system.mem_ctrl.dram.rank0.pwrStateTime::ACT_PDN            0                       # Time in different power states (Tick)
system.mem_ctrl.dram.rank1.actEnergy         12959100                       # Energy for activate commands per rank (pJ) (Joule)
system.mem_ctrl.dram.rank1.preEnergy          6887925                       # Energy for precharge commands per rank (pJ) (Joule)
system.mem_ctrl.dram.rank1.readEnergy        64288560                       # Energy for read commands per rank (pJ) (Joule)
system.mem_ctrl.dram.rank1.writeEnergy       11760660                       # Energy for write commands per rank (pJ) (Joule)
system.mem_ctrl.dram.rank1.refreshEnergy 143211120.000000                       # Energy for refresh commands per rank (pJ) (Joule)
system.mem_ctrl.dram.rank1.actBackEnergy    700439940                       # Energy for active background per rank (pJ) (Joule)
system.mem_ctrl.dram.rank1.preBackEnergy    107006880                       # Energy for precharge background per rank (pJ) (Joule)
system.mem_ctrl.dram.rank1.actPowerDownEnergy            0                       # Energy for active power-down per rank (pJ) (Joule)
system.mem_ctrl.dram.rank1.prePowerDownEnergy            0                       # Energy for precharge power-down per rank (pJ) (Joule)
system.mem_ctrl.dram.rank1.selfRefreshEnergy            0                       # Energy for self refresh per rank (pJ) (Joule)
system.mem_ctrl.dram.rank1.totalEnergy     1046554185                       # Total energy per rank (pJ) (Joule)
system.mem_ctrl.dram.rank1.averagePower    576.632528                       # Core power per rank (mW) (Watt)
system.mem_ctrl.dram.rank1.totalIdleTime            0                       # Total Idle time Per DRAM Rank (Tick)
system.mem_ctrl.dram.rank1.pwrStateTime::IDLE    271615129                       # Time in different power states (Tick)
system.mem_ctrl.dram.rank1.pwrStateTime::REF     60819883                       # Time in different power states (Tick)
system.mem_ctrl.dram.rank1.pwrStateTime::SREF            0                       # Time in different power states (Tick)
system.mem_ctrl.dram.rank1.pwrStateTime::PRE_PDN            0                       # Time in different power states (Tick)
system.mem_ctrl.dram.rank1.pwrStateTime::ACT   1482506280                       # Time in different power states (Tick)
system.mem_ctrl.dram.rank1.pwrStateTime::ACT_PDN            0                       # Time in different power states (Tick)
system.mem_ctrl.power_state.pwrStateResidencyTicks::UNDEFINED   1814941292                       # Cumulative time (in ticks) in various power states (Tick)
system.membus.transDist::ReadResp               20858                       # Transaction distribution (Count)
system.membus.transDist::WritebackDirty          5545                       # Transaction distribution (Count)
system.membus.transDist::CleanEvict             15936                       # Transaction distribution (Count)
system.membus.transDist::UpgradeReq                 1                       # Transaction distribution (Count)
system.membus.transDist::ReadExReq                623                       # Transaction distribution (Count)
system.membus.transDist::ReadExResp               623                       # Transaction distribution (Count)
system.membus.transDist::ReadSharedReq          20860                       # Transaction distribution (Count)
system.membus.pktCount_system.cpu.l1d.mem_side_port::system.mem_ctrl.port        40608                       # Packet count per connected requestor and responder (Count)
system.membus.pktCount_system.cpu.l1d.mem_side_port::total        40608                       # Packet count per connected requestor and responder (Count)
system.membus.pktCount_system.cpu.l1i.mem_side_port::system.mem_ctrl.port        23836                       # Packet count per connected requestor and responder (Count)
system.membus.pktCount_system.cpu.l1i.mem_side_port::total        23836                       # Packet count per connected requestor and responder (Count)
system.membus.pktCount::total                   64444                       # Packet count per connected requestor and responder (Count)
system.membus.pktSize_system.cpu.l1d.mem_side_port::system.mem_ctrl.port      1221120                       # Cumulative packet size per connected requestor and responder (Byte)
system.membus.pktSize_system.cpu.l1d.mem_side_port::total      1221120                       # Cumulative packet size per connected requestor and responder (Byte)
system.membus.pktSize_system.cpu.l1i.mem_side_port::system.mem_ctrl.port       508416                       # Cumulative packet size per connected requestor and responder (Byte)
system.membus.pktSize_system.cpu.l1i.mem_side_port::total       508416                       # Cumulative packet size per connected requestor and responder (Byte)
system.membus.pktSize::total                  1729536                       # Cumulative packet size per connected requestor and responder (Byte)
system.membus.snoops                                2                       # Total snoops (Count)
system.membus.snoopTraffic                        128                       # Total snoop traffic (Byte)
system.membus.snoopFanout::samples              21484                       # Request fanout histogram (Count)
system.membus.snoopFanout::mean              0.006935                       # Request fanout histogram (Count)
system.membus.snoopFanout::stdev             0.082992                       # Request fanout histogram (Count)
system.membus.snoopFanout::underflows               0      0.00%      0.00% # Request fanout histogram (Count)
system.membus.snoopFanout::0                    21335     99.31%     99.31% # Request fanout histogram (Count)
system.membus.snoopFanout::1                      149      0.69%    100.00% # Request fanout histogram (Count)
system.membus.snoopFanout::2                        0      0.00%    100.00% # Request fanout histogram (Count)
system.membus.snoopFanout::overflows                0      0.00%    100.00% # Request fanout histogram (Count)
system.membus.snoopFanout::min_value                0                       # Request fanout histogram (Count)
system.membus.snoopFanout::max_value                1                       # Request fanout histogram (Count)
system.membus.snoopFanout::total                21484                       # Request fanout histogram (Count)
system.membus.power_state.pwrStateResidencyTicks::UNDEFINED   1814941292                       # Cumulative time (in ticks) in various power states (Tick)
system.membus.reqLayer2.occupancy           912906800                       # Layer occupancy (ticks) (Tick)
system.membus.reqLayer2.utilization               0.5                       # Layer utilization (Ratio)
system.membus.respLayer2.occupancy          922412404                       # Layer occupancy (ticks) (Tick)
system.membus.respLayer2.utilization              0.5                       # Layer utilization (Ratio)
system.membus.respLayer3.occupancy          549246918                       # Layer occupancy (ticks) (Tick)
system.membus.respLayer3.utilization              0.3                       # Layer utilization (Ratio)
system.membus.snoop_filter.totRequests          42965                       # Total number of requests made to the snoop filter. (Count)
system.membus.snoop_filter.hitSingleRequests        21480                       # Number of requests hitting in the snoop filter with a single holder of the requested data. (Count)
system.membus.snoop_filter.hitMultiRequests          150                       # Number of requests hitting in the snoop filter with multiple (>1) holders of the requested data. (Count)
system.membus.snoop_filter.totSnoops                0                       # Total number of snoops made to the snoop filter. (Count)
system.membus.snoop_filter.hitSingleSnoops            0                       # Number of snoops hitting in the snoop filter with a single holder of the requested data. (Count)
system.membus.snoop_filter.hitMultiSnoops            0                       # Number of snoops hitting in the snoop filter with multiple (>1) holders of the requested data. (Count)
system.workload.inst.arm                            0                       # number of arm instructions executed (Count)
system.workload.inst.quiesce                        0                       # number of quiesce instructions executed (Count)

---------- End Simulation Statistics   ----------
