
---------- Begin Simulation Statistics ----------
simSeconds                                   1.071160                       # Number of seconds simulated (Second)
simTicks                                 1071159580341                       # Number of ticks simulated (Tick)
finalTick                                1071159580341                       # Number of ticks from beginning of simulation (restored from checkpoints and never reset) (Tick)
simFreq                                  1000000000000                       # The number of ticks per simulated second ((Tick/Second))
hostSeconds                                     50.07                       # Real time elapsed on the host (Second)
hostTickRate                              21392015312                       # The number of ticks simulated per host second (ticks/s) ((Tick/Second))
hostMemory                                    8617240                       # Number of bytes of host memory used (Byte)
simInsts                                     34106956                       # Number of instructions simulated (Count)
simOps                                       74589058                       # Number of ops (including micro ops) simulated (Count)
hostInstRate                                   681145                       # Simulator instruction rate (inst/s) ((Count/Second))
hostOpRate                                    1489606                       # Simulator op (including micro ops) rate (op/s) ((Count/Second))
system.clk_domain.clock                         13333                       # Clock period in ticks (Tick)
system.clk_domain.voltage_domain.voltage            1                       # Voltage in Volts (Volt)
system.cpu.numCycles                         80338977                       # Number of cpu cycles simulated (Cycle)
system.cpu.cpi                               2.355478                       # CPI: cycles per instruction (core level) ((Cycle/Count))
system.cpu.ipc                               0.424542                       # IPC: instructions per cycle (core level) ((Count/Cycle))
system.cpu.numWorkItemsStarted                      0                       # Number of work items this cpu started (Count)
system.cpu.numWorkItemsCompleted                    0                       # Number of work items this cpu completed (Count)
system.cpu.commitStats0.numInsts             34107297                       # Number of instructions committed (thread level) (Count)
system.cpu.commitStats0.numOps               74589583                       # Number of ops (including micro ops) committed (thread level) (Count)
system.cpu.commitStats0.numInstsNotNOP              0                       # Number of instructions committed excluding NOPs or prefetches (Count)
system.cpu.commitStats0.numOpsNotNOP                0                       # Number of Ops (including micro ops) Simulated (Count)
system.cpu.commitStats0.cpi                  2.355478                       # CPI: cycles per instruction (thread level) ((Cycle/Count))
system.cpu.commitStats0.ipc                  0.424542                       # IPC: instructions per cycle (thread level) ((Count/Cycle))
system.cpu.commitStats0.numMemRefs                  0                       # Number of memory references committed (Count)
system.cpu.commitStats0.numFpInsts            2178653                       # Number of float instructions (Count)
system.cpu.commitStats0.numIntInsts          69487711                       # Number of integer instructions (Count)
system.cpu.commitStats0.numLoadInsts          8226532                       # Number of load instructions (Count)
system.cpu.commitStats0.numStoreInsts         7786307                       # Number of store instructions (Count)
system.cpu.commitStats0.numVecInsts                 0                       # Number of vector instructions (Count)
system.cpu.commitStats0.committedInstType::No_OpClass      1181141      1.58%      1.58% # Class of committed instruction. (Count)
system.cpu.commitStats0.committedInstType::IntAlu     55280641     74.11%     75.70% # Class of committed instruction. (Count)
system.cpu.commitStats0.committedInstType::IntMult          150      0.00%     75.70% # Class of committed instruction. (Count)
system.cpu.commitStats0.committedInstType::IntDiv      1147846      1.54%     77.24% # Class of committed instruction. (Count)
system.cpu.commitStats0.committedInstType::FloatAdd       108401      0.15%     77.38% # Class of committed instruction. (Count)
system.cpu.commitStats0.committedInstType::FloatCmp            0      0.00%     77.38% # Class of committed instruction. (Count)
system.cpu.commitStats0.committedInstType::FloatCvt         1232      0.00%     77.38% # Class of committed instruction. (Count)
system.cpu.commitStats0.committedInstType::FloatMult            0      0.00%     77.38% # Class of committed instruction. (Count)
system.cpu.commitStats0.committedInstType::FloatMultAcc            0      0.00%     77.38% # Class of committed instruction. (Count)
system.cpu.commitStats0.committedInstType::FloatDiv            0      0.00%     77.38% # Class of committed instruction. (Count)
system.cpu.commitStats0.committedInstType::FloatMisc            0      0.00%     77.38% # Class of committed instruction. (Count)
system.cpu.commitStats0.committedInstType::FloatSqrt            0      0.00%     77.38% # Class of committed instruction. (Count)
system.cpu.commitStats0.committedInstType::SimdAdd        41736      0.06%     77.44% # Class of committed instruction. (Count)
system.cpu.commitStats0.committedInstType::SimdAddAcc            0      0.00%     77.44% # Class of committed instruction. (Count)
system.cpu.commitStats0.committedInstType::SimdAlu       433130      0.58%     78.02% # Class of committed instruction. (Count)
system.cpu.commitStats0.committedInstType::SimdCmp            6      0.00%     78.02% # Class of committed instruction. (Count)
system.cpu.commitStats0.committedInstType::SimdCvt       136988      0.18%     78.20% # Class of committed instruction. (Count)
system.cpu.commitStats0.committedInstType::SimdMisc       228763      0.31%     78.51% # Class of committed instruction. (Count)
system.cpu.commitStats0.committedInstType::SimdMult            0      0.00%     78.51% # Class of committed instruction. (Count)
system.cpu.commitStats0.committedInstType::SimdMultAcc            0      0.00%     78.51% # Class of committed instruction. (Count)
system.cpu.commitStats0.committedInstType::SimdMatMultAcc            0      0.00%     78.51% # Class of committed instruction. (Count)
system.cpu.commitStats0.committedInstType::SimdShift        16328      0.02%     78.53% # Class of committed instruction. (Count)
system.cpu.commitStats0.committedInstType::SimdShiftAcc            0      0.00%     78.53% # Class of committed instruction. (Count)
system.cpu.commitStats0.committedInstType::SimdDiv            0      0.00%     78.53% # Class of committed instruction. (Count)
system.cpu.commitStats0.committedInstType::SimdSqrt            0      0.00%     78.53% # Class of committed instruction. (Count)
system.cpu.commitStats0.committedInstType::SimdFloatAdd           55      0.00%     78.53% # Class of committed instruction. (Count)
system.cpu.commitStats0.committedInstType::SimdFloatAlu            0      0.00%     78.53% # Class of committed instruction. (Count)
system.cpu.commitStats0.committedInstType::SimdFloatCmp            0      0.00%     78.53% # Class of committed instruction. (Count)
system.cpu.commitStats0.committedInstType::SimdFloatCvt          272      0.00%     78.53% # Class of committed instruction. (Count)
system.cpu.commitStats0.committedInstType::SimdFloatDiv           28      0.00%     78.53% # Class of committed instruction. (Count)
system.cpu.commitStats0.committedInstType::SimdFloatMisc            0      0.00%     78.53% # Class of committed instruction. (Count)
system.cpu.commitStats0.committedInstType::SimdFloatMult           27      0.00%     78.53% # Class of committed instruction. (Count)
system.cpu.commitStats0.committedInstType::SimdFloatMultAcc            0      0.00%     78.53% # Class of committed instruction. (Count)
system.cpu.commitStats0.committedInstType::SimdFloatMatMultAcc            0      0.00%     78.53% # Class of committed instruction. (Count)
system.cpu.commitStats0.committedInstType::SimdFloatSqrt            0      0.00%     78.53% # Class of committed instruction. (Count)
system.cpu.commitStats0.committedInstType::SimdReduceAdd            0      0.00%     78.53% # Class of committed instruction. (Count)
system.cpu.commitStats0.committedInstType::SimdReduceAlu            0      0.00%     78.53% # Class of committed instruction. (Count)
system.cpu.commitStats0.committedInstType::SimdReduceCmp            0      0.00%     78.53% # Class of committed instruction. (Count)
system.cpu.commitStats0.committedInstType::SimdFloatReduceAdd            0      0.00%     78.53% # Class of committed instruction. (Count)
system.cpu.commitStats0.committedInstType::SimdFloatReduceCmp            0      0.00%     78.53% # Class of committed instruction. (Count)
system.cpu.commitStats0.committedInstType::SimdAes            0      0.00%     78.53% # Class of committed instruction. (Count)
system.cpu.commitStats0.committedInstType::SimdAesMix            0      0.00%     78.53% # Class of committed instruction. (Count)
system.cpu.commitStats0.committedInstType::SimdSha1Hash            0      0.00%     78.53% # Class of committed instruction. (Count)
system.cpu.commitStats0.committedInstType::SimdSha1Hash2            0      0.00%     78.53% # Class of committed instruction. (Count)
system.cpu.commitStats0.committedInstType::SimdSha256Hash            0      0.00%     78.53% # Class of committed instruction. (Count)
system.cpu.commitStats0.committedInstType::SimdSha256Hash2            0      0.00%     78.53% # Class of committed instruction. (Count)
system.cpu.commitStats0.committedInstType::SimdShaSigma2            0      0.00%     78.53% # Class of committed instruction. (Count)
system.cpu.commitStats0.committedInstType::SimdShaSigma3            0      0.00%     78.53% # Class of committed instruction. (Count)
system.cpu.commitStats0.committedInstType::SimdPredAlu            0      0.00%     78.53% # Class of committed instruction. (Count)
system.cpu.commitStats0.committedInstType::Matrix            0      0.00%     78.53% # Class of committed instruction. (Count)
system.cpu.commitStats0.committedInstType::MatrixMov            0      0.00%     78.53% # Class of committed instruction. (Count)
system.cpu.commitStats0.committedInstType::MatrixOP            0      0.00%     78.53% # Class of committed instruction. (Count)
system.cpu.commitStats0.committedInstType::MemRead      7853681     10.53%     89.06% # Class of committed instruction. (Count)
system.cpu.commitStats0.committedInstType::MemWrite      7101752      9.52%     98.58% # Class of committed instruction. (Count)
system.cpu.commitStats0.committedInstType::FloatMemRead       372851      0.50%     99.08% # Class of committed instruction. (Count)
system.cpu.commitStats0.committedInstType::FloatMemWrite       684555      0.92%    100.00% # Class of committed instruction. (Count)
system.cpu.commitStats0.committedInstType::IprAccess            0      0.00%    100.00% # Class of committed instruction. (Count)
system.cpu.commitStats0.committedInstType::InstPrefetch            0      0.00%    100.00% # Class of committed instruction. (Count)
system.cpu.commitStats0.committedInstType::SimdUnitStrideLoad            0      0.00%    100.00% # Class of committed instruction. (Count)
system.cpu.commitStats0.committedInstType::SimdUnitStrideStore            0      0.00%    100.00% # Class of committed instruction. (Count)
system.cpu.commitStats0.committedInstType::SimdUnitStrideMaskLoad            0      0.00%    100.00% # Class of committed instruction. (Count)
system.cpu.commitStats0.committedInstType::SimdUnitStrideMaskStore            0      0.00%    100.00% # Class of committed instruction. (Count)
system.cpu.commitStats0.committedInstType::SimdStridedLoad            0      0.00%    100.00% # Class of committed instruction. (Count)
system.cpu.commitStats0.committedInstType::SimdStridedStore            0      0.00%    100.00% # Class of committed instruction. (Count)
system.cpu.commitStats0.committedInstType::SimdIndexedLoad            0      0.00%    100.00% # Class of committed instruction. (Count)
system.cpu.commitStats0.committedInstType::SimdIndexedStore            0      0.00%    100.00% # Class of committed instruction. (Count)
system.cpu.commitStats0.committedInstType::SimdWholeRegisterLoad            0      0.00%    100.00% # Class of committed instruction. (Count)
system.cpu.commitStats0.committedInstType::SimdWholeRegisterStore            0      0.00%    100.00% # Class of committed instruction. (Count)
system.cpu.commitStats0.committedInstType::SimdUnitStrideFaultOnlyFirstLoad            0      0.00%    100.00% # Class of committed instruction. (Count)
system.cpu.commitStats0.committedInstType::SimdUnitStrideSegmentedLoad            0      0.00%    100.00% # Class of committed instruction. (Count)
system.cpu.commitStats0.committedInstType::SimdUnitStrideSegmentedStore            0      0.00%    100.00% # Class of committed instruction. (Count)
system.cpu.commitStats0.committedInstType::SimdExt            0      0.00%    100.00% # Class of committed instruction. (Count)
system.cpu.commitStats0.committedInstType::SimdFloatExt            0      0.00%    100.00% # Class of committed instruction. (Count)
system.cpu.commitStats0.committedInstType::SimdConfig            0      0.00%    100.00% # Class of committed instruction. (Count)
system.cpu.commitStats0.committedInstType::total     74589583                       # Class of committed instruction. (Count)
system.cpu.commitStats0.committedControl::IsControl      9083690                       # Class of control type instructions committed (Count)
system.cpu.commitStats0.committedControl::IsDirectControl      8289963                       # Class of control type instructions committed (Count)
system.cpu.commitStats0.committedControl::IsIndirectControl       792087                       # Class of control type instructions committed (Count)
system.cpu.commitStats0.committedControl::IsCondControl      7536311                       # Class of control type instructions committed (Count)
system.cpu.commitStats0.committedControl::IsUncondControl      1545739                       # Class of control type instructions committed (Count)
system.cpu.commitStats0.committedControl::IsCall       460387                       # Class of control type instructions committed (Count)
system.cpu.commitStats0.committedControl::IsReturn       460382                       # Class of control type instructions committed (Count)
system.cpu.exec_context.thread_0.numMatAluAccesses            0                       # Number of matrix alu accesses (Count)
system.cpu.exec_context.thread_0.numCallsReturns       920769                       # Number of times a function call or return occured (Count)
system.cpu.exec_context.thread_0.numMatInsts            0                       # Number of matrix instructions (Count)
system.cpu.exec_context.thread_0.numIdleCycles            0                       # Number of idle cycles (Cycle)
system.cpu.exec_context.thread_0.numBusyCycles     80338977                       # Number of busy cycles (Cycle)
system.cpu.exec_context.thread_0.notIdleFraction            1                       # Percentage of non-idle cycles (Ratio)
system.cpu.exec_context.thread_0.idleFraction            0                       # Percentage of idle cycles (Ratio)
system.cpu.executeStats0.numInsts                   0                       # Number of executed instructions (Count)
system.cpu.executeStats0.numNop                     0                       # Number of nop insts executed (Count)
system.cpu.executeStats0.numBranches                0                       # Number of branches executed (Count)
system.cpu.executeStats0.numLoadInsts               0                       # Number of load instructions executed (Count)
system.cpu.executeStats0.numStoreInsts       16012839                       # Number of stores executed (Count)
system.cpu.executeStats0.instRate                   0                       # Inst execution rate ((Count/Cycle))
system.cpu.executeStats0.numFpAluAccesses      2178653                       # Number of float alu accesses (Count)
system.cpu.executeStats0.numFpRegReads        2667887                       # Number of times the floating registers were read (Count)
system.cpu.executeStats0.numFpRegWrites       1373363                       # Number of times the floating registers were written (Count)
system.cpu.executeStats0.numIntAluAccesses     69487711                       # Number of integer alu accesses (Count)
system.cpu.executeStats0.numIntRegReads      94289082                       # Number of times the integer registers were read (Count)
system.cpu.executeStats0.numIntRegWrites     52572430                       # Number of times the integer registers were written (Count)
system.cpu.executeStats0.numMemRefs          16012839                       # Number of memory refs (Count)
system.cpu.executeStats0.numMiscRegReads     28409724                       # Number of times the Misc registers were read (Count)
system.cpu.executeStats0.numMiscRegWrites          693                       # Number of times the Misc registers were written (Count)
system.cpu.executeStats0.numVecAluAccesses            0                       # Number of vector alu accesses (Count)
system.cpu.executeStats0.numDiscardedOps            0                       # Number of ops (including micro ops) which were discarded before commit (Count)
system.cpu.fetchStats0.numInsts              34107297                       # Number of instructions fetched (thread level) (Count)
system.cpu.fetchStats0.numOps                74589583                       # Number of ops (including micro ops) fetched (thread level) (Count)
system.cpu.fetchStats0.fetchRate             0.424542                       # Number of inst fetches per cycle ((Count/Cycle))
system.cpu.fetchStats0.numBranches            9083690                       # Number of branches fetched (Count)
system.cpu.fetchStats0.branchRate            0.113067                       # Number of branch fetches per cycle (Ratio)
system.cpu.fetchStats0.numFetchSuspends             0                       # Number of times Execute suspended instruction fetching (Count)
system.cpu.interrupts.clk_domain.clock         213328                       # Clock period in ticks (Tick)
system.cpu.l1d.demandHits::cpu.data          15430145                       # number of demand (read+write) hits (Count)
system.cpu.l1d.demandHits::total             15430145                       # number of demand (read+write) hits (Count)
system.cpu.l1d.overallHits::cpu.data         15430145                       # number of overall hits (Count)
system.cpu.l1d.overallHits::total            15430145                       # number of overall hits (Count)
system.cpu.l1d.demandMisses::cpu.data          586925                       # number of demand (read+write) misses (Count)
system.cpu.l1d.demandMisses::total             586925                       # number of demand (read+write) misses (Count)
system.cpu.l1d.overallMisses::cpu.data         586925                       # number of overall misses (Count)
system.cpu.l1d.overallMisses::total            586925                       # number of overall misses (Count)
system.cpu.l1d.demandMissLatency::cpu.data 123234812386                       # number of demand (read+write) miss ticks (Tick)
system.cpu.l1d.demandMissLatency::total  123234812386                       # number of demand (read+write) miss ticks (Tick)
system.cpu.l1d.overallMissLatency::cpu.data 123234812386                       # number of overall miss ticks (Tick)
system.cpu.l1d.overallMissLatency::total 123234812386                       # number of overall miss ticks (Tick)
system.cpu.l1d.demandAccesses::cpu.data      16017070                       # number of demand (read+write) accesses (Count)
system.cpu.l1d.demandAccesses::total         16017070                       # number of demand (read+write) accesses (Count)
system.cpu.l1d.overallAccesses::cpu.data     16017070                       # number of overall (read+write) accesses (Count)
system.cpu.l1d.overallAccesses::total        16017070                       # number of overall (read+write) accesses (Count)
system.cpu.l1d.demandMissRate::cpu.data      0.036644                       # miss rate for demand accesses (Ratio)
system.cpu.l1d.demandMissRate::total         0.036644                       # miss rate for demand accesses (Ratio)
system.cpu.l1d.overallMissRate::cpu.data     0.036644                       # miss rate for overall accesses (Ratio)
system.cpu.l1d.overallMissRate::total        0.036644                       # miss rate for overall accesses (Ratio)
system.cpu.l1d.demandAvgMissLatency::cpu.data 209966.882286                       # average overall miss latency in ticks ((Tick/Count))
system.cpu.l1d.demandAvgMissLatency::total 209966.882286                       # average overall miss latency in ticks ((Tick/Count))
system.cpu.l1d.overallAvgMissLatency::cpu.data 209966.882286                       # average overall miss latency ((Tick/Count))
system.cpu.l1d.overallAvgMissLatency::total 209966.882286                       # average overall miss latency ((Tick/Count))
system.cpu.l1d.blockedCycles::no_mshrs              0                       # number of cycles access was blocked (Cycle)
system.cpu.l1d.blockedCycles::no_targets            0                       # number of cycles access was blocked (Cycle)
system.cpu.l1d.blockedCauses::no_mshrs              0                       # number of times access was blocked (Count)
system.cpu.l1d.blockedCauses::no_targets            0                       # number of times access was blocked (Count)
system.cpu.l1d.avgBlocked::no_mshrs               nan                       # average number of cycles each access was blocked ((Cycle/Count))
system.cpu.l1d.avgBlocked::no_targets             nan                       # average number of cycles each access was blocked ((Cycle/Count))
system.cpu.l1d.writebacks::writebacks          246966                       # number of writebacks (Count)
system.cpu.l1d.writebacks::total               246966                       # number of writebacks (Count)
system.cpu.l1d.demandMshrMisses::cpu.data       586925                       # number of demand (read+write) MSHR misses (Count)
system.cpu.l1d.demandMshrMisses::total         586925                       # number of demand (read+write) MSHR misses (Count)
system.cpu.l1d.overallMshrMisses::cpu.data       586925                       # number of overall MSHR misses (Count)
system.cpu.l1d.overallMshrMisses::total        586925                       # number of overall MSHR misses (Count)
system.cpu.l1d.demandMshrMissLatency::cpu.data 115409341361                       # number of demand (read+write) MSHR miss ticks (Tick)
system.cpu.l1d.demandMshrMissLatency::total 115409341361                       # number of demand (read+write) MSHR miss ticks (Tick)
system.cpu.l1d.overallMshrMissLatency::cpu.data 115409341361                       # number of overall MSHR miss ticks (Tick)
system.cpu.l1d.overallMshrMissLatency::total 115409341361                       # number of overall MSHR miss ticks (Tick)
system.cpu.l1d.demandMshrMissRate::cpu.data     0.036644                       # mshr miss ratio for demand accesses (Ratio)
system.cpu.l1d.demandMshrMissRate::total     0.036644                       # mshr miss ratio for demand accesses (Ratio)
system.cpu.l1d.overallMshrMissRate::cpu.data     0.036644                       # mshr miss ratio for overall accesses (Ratio)
system.cpu.l1d.overallMshrMissRate::total     0.036644                       # mshr miss ratio for overall accesses (Ratio)
system.cpu.l1d.demandAvgMshrMissLatency::cpu.data 196633.882286                       # average overall mshr miss latency ((Tick/Count))
system.cpu.l1d.demandAvgMshrMissLatency::total 196633.882286                       # average overall mshr miss latency ((Tick/Count))
system.cpu.l1d.overallAvgMshrMissLatency::cpu.data 196633.882286                       # average overall mshr miss latency ((Tick/Count))
system.cpu.l1d.overallAvgMshrMissLatency::total 196633.882286                       # average overall mshr miss latency ((Tick/Count))
system.cpu.l1d.replacements                    586955                       # number of replacements (Count)
system.cpu.l1d.LockedRMWReadReq.hits::cpu.data          663                       # number of LockedRMWReadReq hits (Count)
system.cpu.l1d.LockedRMWReadReq.hits::total          663                       # number of LockedRMWReadReq hits (Count)
system.cpu.l1d.LockedRMWReadReq.misses::cpu.data           94                       # number of LockedRMWReadReq misses (Count)
system.cpu.l1d.LockedRMWReadReq.misses::total           94                       # number of LockedRMWReadReq misses (Count)
system.cpu.l1d.LockedRMWReadReq.missLatency::cpu.data     19759506                       # number of LockedRMWReadReq miss ticks (Tick)
system.cpu.l1d.LockedRMWReadReq.missLatency::total     19759506                       # number of LockedRMWReadReq miss ticks (Tick)
system.cpu.l1d.LockedRMWReadReq.accesses::cpu.data          757                       # number of LockedRMWReadReq accesses(hits+misses) (Count)
system.cpu.l1d.LockedRMWReadReq.accesses::total          757                       # number of LockedRMWReadReq accesses(hits+misses) (Count)
system.cpu.l1d.LockedRMWReadReq.missRate::cpu.data     0.124174                       # miss rate for LockedRMWReadReq accesses (Ratio)
system.cpu.l1d.LockedRMWReadReq.missRate::total     0.124174                       # miss rate for LockedRMWReadReq accesses (Ratio)
system.cpu.l1d.LockedRMWReadReq.avgMissLatency::cpu.data 210207.510638                       # average LockedRMWReadReq miss latency ((Tick/Count))
system.cpu.l1d.LockedRMWReadReq.avgMissLatency::total 210207.510638                       # average LockedRMWReadReq miss latency ((Tick/Count))
system.cpu.l1d.LockedRMWReadReq.mshrMisses::cpu.data           94                       # number of LockedRMWReadReq MSHR misses (Count)
system.cpu.l1d.LockedRMWReadReq.mshrMisses::total           94                       # number of LockedRMWReadReq MSHR misses (Count)
system.cpu.l1d.LockedRMWReadReq.mshrMissLatency::cpu.data     47105489                       # number of LockedRMWReadReq MSHR miss ticks (Tick)
system.cpu.l1d.LockedRMWReadReq.mshrMissLatency::total     47105489                       # number of LockedRMWReadReq MSHR miss ticks (Tick)
system.cpu.l1d.LockedRMWReadReq.mshrMissRate::cpu.data     0.124174                       # mshr miss rate for LockedRMWReadReq accesses (Ratio)
system.cpu.l1d.LockedRMWReadReq.mshrMissRate::total     0.124174                       # mshr miss rate for LockedRMWReadReq accesses (Ratio)
system.cpu.l1d.LockedRMWReadReq.avgMshrMissLatency::cpu.data 501122.223404                       # average LockedRMWReadReq mshr miss latency ((Tick/Count))
system.cpu.l1d.LockedRMWReadReq.avgMshrMissLatency::total 501122.223404                       # average LockedRMWReadReq mshr miss latency ((Tick/Count))
system.cpu.l1d.LockedRMWWriteReq.hits::cpu.data          757                       # number of LockedRMWWriteReq hits (Count)
system.cpu.l1d.LockedRMWWriteReq.hits::total          757                       # number of LockedRMWWriteReq hits (Count)
system.cpu.l1d.LockedRMWWriteReq.accesses::cpu.data          757                       # number of LockedRMWWriteReq accesses(hits+misses) (Count)
system.cpu.l1d.LockedRMWWriteReq.accesses::total          757                       # number of LockedRMWWriteReq accesses(hits+misses) (Count)
system.cpu.l1d.ReadReq.hits::cpu.data         7751009                       # number of ReadReq hits (Count)
system.cpu.l1d.ReadReq.hits::total            7751009                       # number of ReadReq hits (Count)
system.cpu.l1d.ReadReq.misses::cpu.data        480595                       # number of ReadReq misses (Count)
system.cpu.l1d.ReadReq.misses::total           480595                       # number of ReadReq misses (Count)
system.cpu.l1d.ReadReq.missLatency::cpu.data 101897679161                       # number of ReadReq miss ticks (Tick)
system.cpu.l1d.ReadReq.missLatency::total 101897679161                       # number of ReadReq miss ticks (Tick)
system.cpu.l1d.ReadReq.accesses::cpu.data      8231604                       # number of ReadReq accesses(hits+misses) (Count)
system.cpu.l1d.ReadReq.accesses::total        8231604                       # number of ReadReq accesses(hits+misses) (Count)
system.cpu.l1d.ReadReq.missRate::cpu.data     0.058384                       # miss rate for ReadReq accesses (Ratio)
system.cpu.l1d.ReadReq.missRate::total       0.058384                       # miss rate for ReadReq accesses (Ratio)
system.cpu.l1d.ReadReq.avgMissLatency::cpu.data 212024.010156                       # average ReadReq miss latency ((Tick/Count))
system.cpu.l1d.ReadReq.avgMissLatency::total 212024.010156                       # average ReadReq miss latency ((Tick/Count))
system.cpu.l1d.ReadReq.mshrMisses::cpu.data       480595                       # number of ReadReq MSHR misses (Count)
system.cpu.l1d.ReadReq.mshrMisses::total       480595                       # number of ReadReq MSHR misses (Count)
system.cpu.l1d.ReadReq.mshrMissLatency::cpu.data  95489906026                       # number of ReadReq MSHR miss ticks (Tick)
system.cpu.l1d.ReadReq.mshrMissLatency::total  95489906026                       # number of ReadReq MSHR miss ticks (Tick)
system.cpu.l1d.ReadReq.mshrMissRate::cpu.data     0.058384                       # mshr miss rate for ReadReq accesses (Ratio)
system.cpu.l1d.ReadReq.mshrMissRate::total     0.058384                       # mshr miss rate for ReadReq accesses (Ratio)
system.cpu.l1d.ReadReq.avgMshrMissLatency::cpu.data 198691.010156                       # average ReadReq mshr miss latency ((Tick/Count))
system.cpu.l1d.ReadReq.avgMshrMissLatency::total 198691.010156                       # average ReadReq mshr miss latency ((Tick/Count))
system.cpu.l1d.WriteReq.hits::cpu.data        7679136                       # number of WriteReq hits (Count)
system.cpu.l1d.WriteReq.hits::total           7679136                       # number of WriteReq hits (Count)
system.cpu.l1d.WriteReq.misses::cpu.data       106330                       # number of WriteReq misses (Count)
system.cpu.l1d.WriteReq.misses::total          106330                       # number of WriteReq misses (Count)
system.cpu.l1d.WriteReq.missLatency::cpu.data  21337133225                       # number of WriteReq miss ticks (Tick)
system.cpu.l1d.WriteReq.missLatency::total  21337133225                       # number of WriteReq miss ticks (Tick)
system.cpu.l1d.WriteReq.accesses::cpu.data      7785466                       # number of WriteReq accesses(hits+misses) (Count)
system.cpu.l1d.WriteReq.accesses::total       7785466                       # number of WriteReq accesses(hits+misses) (Count)
system.cpu.l1d.WriteReq.missRate::cpu.data     0.013657                       # miss rate for WriteReq accesses (Ratio)
system.cpu.l1d.WriteReq.missRate::total      0.013657                       # miss rate for WriteReq accesses (Ratio)
system.cpu.l1d.WriteReq.avgMissLatency::cpu.data 200668.985470                       # average WriteReq miss latency ((Tick/Count))
system.cpu.l1d.WriteReq.avgMissLatency::total 200668.985470                       # average WriteReq miss latency ((Tick/Count))
system.cpu.l1d.WriteReq.mshrMisses::cpu.data       106330                       # number of WriteReq MSHR misses (Count)
system.cpu.l1d.WriteReq.mshrMisses::total       106330                       # number of WriteReq MSHR misses (Count)
system.cpu.l1d.WriteReq.mshrMissLatency::cpu.data  19919435335                       # number of WriteReq MSHR miss ticks (Tick)
system.cpu.l1d.WriteReq.mshrMissLatency::total  19919435335                       # number of WriteReq MSHR miss ticks (Tick)
system.cpu.l1d.WriteReq.mshrMissRate::cpu.data     0.013657                       # mshr miss rate for WriteReq accesses (Ratio)
system.cpu.l1d.WriteReq.mshrMissRate::total     0.013657                       # mshr miss rate for WriteReq accesses (Ratio)
system.cpu.l1d.WriteReq.avgMshrMissLatency::cpu.data 187335.985470                       # average WriteReq mshr miss latency ((Tick/Count))
system.cpu.l1d.WriteReq.avgMshrMissLatency::total 187335.985470                       # average WriteReq mshr miss latency ((Tick/Count))
system.cpu.l1d.power_state.pwrStateResidencyTicks::UNDEFINED 1071159580341                       # Cumulative time (in ticks) in various power states (Tick)
system.cpu.l1d.tags.tagsInUse               63.998552                       # Average ticks per tags in use ((Tick/Count))
system.cpu.l1d.tags.totalRefs                16018271                       # Total number of references to valid blocks. (Count)
system.cpu.l1d.tags.sampledRefs                586955                       # Sample count of references to valid blocks. (Count)
system.cpu.l1d.tags.avgRefs                 27.290458                       # Average number of references to valid blocks. ((Count/Count))
system.cpu.l1d.tags.warmupTick                 479988                       # The tick when the warmup percentage was hit. (Tick)
system.cpu.l1d.tags.occupancies::cpu.data    63.998552                       # Average occupied blocks per tick, per requestor ((Count/Tick))
system.cpu.l1d.tags.avgOccs::cpu.data        0.999977                       # Average percentage of cache occupancy ((Ratio/Tick))
system.cpu.l1d.tags.avgOccs::total           0.999977                       # Average percentage of cache occupancy ((Ratio/Tick))
system.cpu.l1d.tags.occupanciesTaskId::1024           64                       # Occupied blocks per task id (Count)
system.cpu.l1d.tags.ageTaskId_1024::0              14                       # Occupied blocks per task id, per block age (Count)
system.cpu.l1d.tags.ageTaskId_1024::1              50                       # Occupied blocks per task id, per block age (Count)
system.cpu.l1d.tags.ratioOccsTaskId::1024            1                       # Ratio of occupied blocks and all blocks, per task id (Ratio)
system.cpu.l1d.tags.tagAccesses              32624187                       # Number of tag accesses (Count)
system.cpu.l1d.tags.dataAccesses             32624187                       # Number of data accesses (Count)
system.cpu.l1d.tags.power_state.pwrStateResidencyTicks::UNDEFINED 1071159580341                       # Cumulative time (in ticks) in various power states (Tick)
system.cpu.l1i.demandHits::cpu.inst          45412906                       # number of demand (read+write) hits (Count)
system.cpu.l1i.demandHits::total             45412906                       # number of demand (read+write) hits (Count)
system.cpu.l1i.overallHits::cpu.inst         45412906                       # number of overall hits (Count)
system.cpu.l1i.overallHits::total            45412906                       # number of overall hits (Count)
system.cpu.l1i.demandMisses::cpu.inst          547684                       # number of demand (read+write) misses (Count)
system.cpu.l1i.demandMisses::total             547684                       # number of demand (read+write) misses (Count)
system.cpu.l1i.overallMisses::cpu.inst         547684                       # number of overall misses (Count)
system.cpu.l1i.overallMisses::total            547684                       # number of overall misses (Count)
system.cpu.l1i.demandMissLatency::cpu.inst 116323238513                       # number of demand (read+write) miss ticks (Tick)
system.cpu.l1i.demandMissLatency::total  116323238513                       # number of demand (read+write) miss ticks (Tick)
system.cpu.l1i.overallMissLatency::cpu.inst 116323238513                       # number of overall miss ticks (Tick)
system.cpu.l1i.overallMissLatency::total 116323238513                       # number of overall miss ticks (Tick)
system.cpu.l1i.demandAccesses::cpu.inst      45960590                       # number of demand (read+write) accesses (Count)
system.cpu.l1i.demandAccesses::total         45960590                       # number of demand (read+write) accesses (Count)
system.cpu.l1i.overallAccesses::cpu.inst     45960590                       # number of overall (read+write) accesses (Count)
system.cpu.l1i.overallAccesses::total        45960590                       # number of overall (read+write) accesses (Count)
system.cpu.l1i.demandMissRate::cpu.inst      0.011916                       # miss rate for demand accesses (Ratio)
system.cpu.l1i.demandMissRate::total         0.011916                       # miss rate for demand accesses (Ratio)
system.cpu.l1i.overallMissRate::cpu.inst     0.011916                       # miss rate for overall accesses (Ratio)
system.cpu.l1i.overallMissRate::total        0.011916                       # miss rate for overall accesses (Ratio)
system.cpu.l1i.demandAvgMissLatency::cpu.inst 212391.157151                       # average overall miss latency in ticks ((Tick/Count))
system.cpu.l1i.demandAvgMissLatency::total 212391.157151                       # average overall miss latency in ticks ((Tick/Count))
system.cpu.l1i.overallAvgMissLatency::cpu.inst 212391.157151                       # average overall miss latency ((Tick/Count))
system.cpu.l1i.overallAvgMissLatency::total 212391.157151                       # average overall miss latency ((Tick/Count))
system.cpu.l1i.blockedCycles::no_mshrs              0                       # number of cycles access was blocked (Cycle)
system.cpu.l1i.blockedCycles::no_targets            0                       # number of cycles access was blocked (Cycle)
system.cpu.l1i.blockedCauses::no_mshrs              0                       # number of times access was blocked (Count)
system.cpu.l1i.blockedCauses::no_targets            0                       # number of times access was blocked (Count)
system.cpu.l1i.avgBlocked::no_mshrs               nan                       # average number of cycles each access was blocked ((Cycle/Count))
system.cpu.l1i.avgBlocked::no_targets             nan                       # average number of cycles each access was blocked ((Cycle/Count))
system.cpu.l1i.demandMshrMisses::cpu.inst       547684                       # number of demand (read+write) MSHR misses (Count)
system.cpu.l1i.demandMshrMisses::total         547684                       # number of demand (read+write) MSHR misses (Count)
system.cpu.l1i.overallMshrMisses::cpu.inst       547684                       # number of overall MSHR misses (Count)
system.cpu.l1i.overallMshrMisses::total        547684                       # number of overall MSHR misses (Count)
system.cpu.l1i.demandMshrMissLatency::cpu.inst 109020967741                       # number of demand (read+write) MSHR miss ticks (Tick)
system.cpu.l1i.demandMshrMissLatency::total 109020967741                       # number of demand (read+write) MSHR miss ticks (Tick)
system.cpu.l1i.overallMshrMissLatency::cpu.inst 109020967741                       # number of overall MSHR miss ticks (Tick)
system.cpu.l1i.overallMshrMissLatency::total 109020967741                       # number of overall MSHR miss ticks (Tick)
system.cpu.l1i.demandMshrMissRate::cpu.inst     0.011916                       # mshr miss ratio for demand accesses (Ratio)
system.cpu.l1i.demandMshrMissRate::total     0.011916                       # mshr miss ratio for demand accesses (Ratio)
system.cpu.l1i.overallMshrMissRate::cpu.inst     0.011916                       # mshr miss ratio for overall accesses (Ratio)
system.cpu.l1i.overallMshrMissRate::total     0.011916                       # mshr miss ratio for overall accesses (Ratio)
system.cpu.l1i.demandAvgMshrMissLatency::cpu.inst 199058.157151                       # average overall mshr miss latency ((Tick/Count))
system.cpu.l1i.demandAvgMshrMissLatency::total 199058.157151                       # average overall mshr miss latency ((Tick/Count))
system.cpu.l1i.overallAvgMshrMissLatency::cpu.inst 199058.157151                       # average overall mshr miss latency ((Tick/Count))
system.cpu.l1i.overallAvgMshrMissLatency::total 199058.157151                       # average overall mshr miss latency ((Tick/Count))
system.cpu.l1i.replacements                    547620                       # number of replacements (Count)
system.cpu.l1i.ReadReq.hits::cpu.inst        45412906                       # number of ReadReq hits (Count)
system.cpu.l1i.ReadReq.hits::total           45412906                       # number of ReadReq hits (Count)
system.cpu.l1i.ReadReq.misses::cpu.inst        547684                       # number of ReadReq misses (Count)
system.cpu.l1i.ReadReq.misses::total           547684                       # number of ReadReq misses (Count)
system.cpu.l1i.ReadReq.missLatency::cpu.inst 116323238513                       # number of ReadReq miss ticks (Tick)
system.cpu.l1i.ReadReq.missLatency::total 116323238513                       # number of ReadReq miss ticks (Tick)
system.cpu.l1i.ReadReq.accesses::cpu.inst     45960590                       # number of ReadReq accesses(hits+misses) (Count)
system.cpu.l1i.ReadReq.accesses::total       45960590                       # number of ReadReq accesses(hits+misses) (Count)
system.cpu.l1i.ReadReq.missRate::cpu.inst     0.011916                       # miss rate for ReadReq accesses (Ratio)
system.cpu.l1i.ReadReq.missRate::total       0.011916                       # miss rate for ReadReq accesses (Ratio)
system.cpu.l1i.ReadReq.avgMissLatency::cpu.inst 212391.157151                       # average ReadReq miss latency ((Tick/Count))
system.cpu.l1i.ReadReq.avgMissLatency::total 212391.157151                       # average ReadReq miss latency ((Tick/Count))
system.cpu.l1i.ReadReq.mshrMisses::cpu.inst       547684                       # number of ReadReq MSHR misses (Count)
system.cpu.l1i.ReadReq.mshrMisses::total       547684                       # number of ReadReq MSHR misses (Count)
system.cpu.l1i.ReadReq.mshrMissLatency::cpu.inst 109020967741                       # number of ReadReq MSHR miss ticks (Tick)
system.cpu.l1i.ReadReq.mshrMissLatency::total 109020967741                       # number of ReadReq MSHR miss ticks (Tick)
system.cpu.l1i.ReadReq.mshrMissRate::cpu.inst     0.011916                       # mshr miss rate for ReadReq accesses (Ratio)
system.cpu.l1i.ReadReq.mshrMissRate::total     0.011916                       # mshr miss rate for ReadReq accesses (Ratio)
system.cpu.l1i.ReadReq.avgMshrMissLatency::cpu.inst 199058.157151                       # average ReadReq mshr miss latency ((Tick/Count))
system.cpu.l1i.ReadReq.avgMshrMissLatency::total 199058.157151                       # average ReadReq mshr miss latency ((Tick/Count))
system.cpu.l1i.power_state.pwrStateResidencyTicks::UNDEFINED 1071159580341                       # Cumulative time (in ticks) in various power states (Tick)
system.cpu.l1i.tags.tagsInUse               63.995925                       # Average ticks per tags in use ((Tick/Count))
system.cpu.l1i.tags.totalRefs                45628846                       # Total number of references to valid blocks. (Count)
system.cpu.l1i.tags.sampledRefs                547620                       # Sample count of references to valid blocks. (Count)
system.cpu.l1i.tags.avgRefs                 83.322096                       # Average number of references to valid blocks. ((Count/Count))
system.cpu.l1i.tags.warmupTick                 199995                       # The tick when the warmup percentage was hit. (Tick)
system.cpu.l1i.tags.occupancies::cpu.inst    63.995925                       # Average occupied blocks per tick, per requestor ((Count/Tick))
system.cpu.l1i.tags.avgOccs::cpu.inst        0.999936                       # Average percentage of cache occupancy ((Ratio/Tick))
system.cpu.l1i.tags.avgOccs::total           0.999936                       # Average percentage of cache occupancy ((Ratio/Tick))
system.cpu.l1i.tags.occupanciesTaskId::1024           64                       # Occupied blocks per task id (Count)
system.cpu.l1i.tags.ageTaskId_1024::0               6                       # Occupied blocks per task id, per block age (Count)
system.cpu.l1i.tags.ageTaskId_1024::1               1                       # Occupied blocks per task id, per block age (Count)
system.cpu.l1i.tags.ageTaskId_1024::2              25                       # Occupied blocks per task id, per block age (Count)
system.cpu.l1i.tags.ageTaskId_1024::3              28                       # Occupied blocks per task id, per block age (Count)
system.cpu.l1i.tags.ageTaskId_1024::4               4                       # Occupied blocks per task id, per block age (Count)
system.cpu.l1i.tags.ratioOccsTaskId::1024            1                       # Ratio of occupied blocks and all blocks, per task id (Ratio)
system.cpu.l1i.tags.tagAccesses              92468864                       # Number of tag accesses (Count)
system.cpu.l1i.tags.dataAccesses             92468864                       # Number of data accesses (Count)
system.cpu.l1i.tags.power_state.pwrStateResidencyTicks::UNDEFINED 1071159580341                       # Cumulative time (in ticks) in various power states (Tick)
system.cpu.mmu.dtb.rdAccesses                 8232613                       # TLB accesses on read requests (Count)
system.cpu.mmu.dtb.wrAccesses                 7786373                       # TLB accesses on write requests (Count)
system.cpu.mmu.dtb.rdMisses                      1700                       # TLB misses on read requests (Count)
system.cpu.mmu.dtb.wrMisses                       348                       # TLB misses on write requests (Count)
system.cpu.mmu.dtb.walker.power_state.pwrStateResidencyTicks::UNDEFINED 1071159580341                       # Cumulative time (in ticks) in various power states (Tick)
system.cpu.mmu.itb.rdAccesses                       0                       # TLB accesses on read requests (Count)
system.cpu.mmu.itb.wrAccesses                45960705                       # TLB accesses on write requests (Count)
system.cpu.mmu.itb.rdMisses                         0                       # TLB misses on read requests (Count)
system.cpu.mmu.itb.wrMisses                       478                       # TLB misses on write requests (Count)
system.cpu.mmu.itb.walker.power_state.pwrStateResidencyTicks::UNDEFINED 1071159580341                       # Cumulative time (in ticks) in various power states (Tick)
system.cpu.power_state.pwrStateResidencyTicks::ON 1071159580341                       # Cumulative time (in ticks) in various power states (Tick)
system.cpu.thread_0.numInsts                        0                       # Number of Instructions committed (Count)
system.cpu.thread_0.numOps                          0                       # Number of Ops committed (Count)
system.cpu.thread_0.numMemRefs                      0                       # Number of Memory References (Count)
system.cpu.workload.numSyscalls                   124                       # Number of system calls (Count)
system.mem_ctrl.avgPriority_writebacks::samples    183211.00                       # Average QoS priority value for accepted requests (Count)
system.mem_ctrl.avgPriority_cpu.inst::samples    547684.00                       # Average QoS priority value for accepted requests (Count)
system.mem_ctrl.avgPriority_cpu.data::samples    497565.00                       # Average QoS priority value for accepted requests (Count)
system.mem_ctrl.priorityMinLatency       0.000000018750                       # per QoS priority minimum request to response latency (Second)
system.mem_ctrl.priorityMaxLatency       0.005944630548                       # per QoS priority maximum request to response latency (Second)
system.mem_ctrl.numReadWriteTurnArounds         10190                       # Number of turnarounds from READ to WRITE (Count)
system.mem_ctrl.numWriteReadTurnArounds         10190                       # Number of turnarounds from WRITE to READ (Count)
system.mem_ctrl.numStayReadState              2611794                       # Number of times bus staying in READ state (Count)
system.mem_ctrl.numStayWriteState              173198                       # Number of times bus staying in WRITE state (Count)
system.mem_ctrl.readReqs                      1134703                       # Number of read requests accepted (Count)
system.mem_ctrl.writeReqs                      246966                       # Number of write requests accepted (Count)
system.mem_ctrl.readBursts                    1134703                       # Number of controller read bursts, including those serviced by the write queue (Count)
system.mem_ctrl.writeBursts                    246966                       # Number of controller write bursts, including those merged in the write queue (Count)
system.mem_ctrl.servicedByWrQ                   89454                       # Number of controller read bursts serviced by the write queue (Count)
system.mem_ctrl.mergedWrBursts                  63755                       # Number of controller write bursts merged with an existing one (Count)
system.mem_ctrl.neitherReadNorWriteReqs             0                       # Number of requests that are neither read nor write (Count)
system.mem_ctrl.avgRdQLen                        1.00                       # Average read queue length when enqueuing ((Count/Tick))
system.mem_ctrl.avgWrQLen                       24.63                       # Average write queue length when enqueuing ((Count/Tick))
system.mem_ctrl.numRdRetry                          0                       # Number of times read queue was full causing retry (Count)
system.mem_ctrl.numWrRetry                          0                       # Number of times write queue was full causing retry (Count)
system.mem_ctrl.readPktSize::0                      0                       # Read request sizes (log2) (Count)
system.mem_ctrl.readPktSize::1                      0                       # Read request sizes (log2) (Count)
system.mem_ctrl.readPktSize::2                      0                       # Read request sizes (log2) (Count)
system.mem_ctrl.readPktSize::3                      0                       # Read request sizes (log2) (Count)
system.mem_ctrl.readPktSize::4                      0                       # Read request sizes (log2) (Count)
system.mem_ctrl.readPktSize::5                      0                       # Read request sizes (log2) (Count)
system.mem_ctrl.readPktSize::6                1134703                       # Read request sizes (log2) (Count)
system.mem_ctrl.writePktSize::0                     0                       # Write request sizes (log2) (Count)
system.mem_ctrl.writePktSize::1                     0                       # Write request sizes (log2) (Count)
system.mem_ctrl.writePktSize::2                     0                       # Write request sizes (log2) (Count)
system.mem_ctrl.writePktSize::3                     0                       # Write request sizes (log2) (Count)
system.mem_ctrl.writePktSize::4                     0                       # Write request sizes (log2) (Count)
system.mem_ctrl.writePktSize::5                     0                       # Write request sizes (log2) (Count)
system.mem_ctrl.writePktSize::6                246966                       # Write request sizes (log2) (Count)
system.mem_ctrl.rdQLenPdf::0                  1044699                       # What read queue length does an incoming req see (Count)
system.mem_ctrl.rdQLenPdf::1                      550                       # What read queue length does an incoming req see (Count)
system.mem_ctrl.rdQLenPdf::2                        0                       # What read queue length does an incoming req see (Count)
system.mem_ctrl.rdQLenPdf::3                        0                       # What read queue length does an incoming req see (Count)
system.mem_ctrl.rdQLenPdf::4                        0                       # What read queue length does an incoming req see (Count)
system.mem_ctrl.rdQLenPdf::5                        0                       # What read queue length does an incoming req see (Count)
system.mem_ctrl.rdQLenPdf::6                        0                       # What read queue length does an incoming req see (Count)
system.mem_ctrl.rdQLenPdf::7                        0                       # What read queue length does an incoming req see (Count)
system.mem_ctrl.rdQLenPdf::8                        0                       # What read queue length does an incoming req see (Count)
system.mem_ctrl.rdQLenPdf::9                        0                       # What read queue length does an incoming req see (Count)
system.mem_ctrl.rdQLenPdf::10                       0                       # What read queue length does an incoming req see (Count)
system.mem_ctrl.rdQLenPdf::11                       0                       # What read queue length does an incoming req see (Count)
system.mem_ctrl.rdQLenPdf::12                       0                       # What read queue length does an incoming req see (Count)
system.mem_ctrl.rdQLenPdf::13                       0                       # What read queue length does an incoming req see (Count)
system.mem_ctrl.rdQLenPdf::14                       0                       # What read queue length does an incoming req see (Count)
system.mem_ctrl.rdQLenPdf::15                       0                       # What read queue length does an incoming req see (Count)
system.mem_ctrl.rdQLenPdf::16                       0                       # What read queue length does an incoming req see (Count)
system.mem_ctrl.rdQLenPdf::17                       0                       # What read queue length does an incoming req see (Count)
system.mem_ctrl.rdQLenPdf::18                       0                       # What read queue length does an incoming req see (Count)
system.mem_ctrl.rdQLenPdf::19                       0                       # What read queue length does an incoming req see (Count)
system.mem_ctrl.rdQLenPdf::20                       0                       # What read queue length does an incoming req see (Count)
system.mem_ctrl.rdQLenPdf::21                       0                       # What read queue length does an incoming req see (Count)
system.mem_ctrl.rdQLenPdf::22                       0                       # What read queue length does an incoming req see (Count)
system.mem_ctrl.rdQLenPdf::23                       0                       # What read queue length does an incoming req see (Count)
system.mem_ctrl.rdQLenPdf::24                       0                       # What read queue length does an incoming req see (Count)
system.mem_ctrl.rdQLenPdf::25                       0                       # What read queue length does an incoming req see (Count)
system.mem_ctrl.rdQLenPdf::26                       0                       # What read queue length does an incoming req see (Count)
system.mem_ctrl.rdQLenPdf::27                       0                       # What read queue length does an incoming req see (Count)
system.mem_ctrl.rdQLenPdf::28                       0                       # What read queue length does an incoming req see (Count)
system.mem_ctrl.rdQLenPdf::29                       0                       # What read queue length does an incoming req see (Count)
system.mem_ctrl.rdQLenPdf::30                       0                       # What read queue length does an incoming req see (Count)
system.mem_ctrl.rdQLenPdf::31                       0                       # What read queue length does an incoming req see (Count)
system.mem_ctrl.wrQLenPdf::0                        1                       # What write queue length does an incoming req see (Count)
system.mem_ctrl.wrQLenPdf::1                        1                       # What write queue length does an incoming req see (Count)
system.mem_ctrl.wrQLenPdf::2                        1                       # What write queue length does an incoming req see (Count)
system.mem_ctrl.wrQLenPdf::3                        1                       # What write queue length does an incoming req see (Count)
system.mem_ctrl.wrQLenPdf::4                        1                       # What write queue length does an incoming req see (Count)
system.mem_ctrl.wrQLenPdf::5                        1                       # What write queue length does an incoming req see (Count)
system.mem_ctrl.wrQLenPdf::6                        1                       # What write queue length does an incoming req see (Count)
system.mem_ctrl.wrQLenPdf::7                        1                       # What write queue length does an incoming req see (Count)
system.mem_ctrl.wrQLenPdf::8                        1                       # What write queue length does an incoming req see (Count)
system.mem_ctrl.wrQLenPdf::9                        1                       # What write queue length does an incoming req see (Count)
system.mem_ctrl.wrQLenPdf::10                       1                       # What write queue length does an incoming req see (Count)
system.mem_ctrl.wrQLenPdf::11                       1                       # What write queue length does an incoming req see (Count)
system.mem_ctrl.wrQLenPdf::12                       1                       # What write queue length does an incoming req see (Count)
system.mem_ctrl.wrQLenPdf::13                       1                       # What write queue length does an incoming req see (Count)
system.mem_ctrl.wrQLenPdf::14                       1                       # What write queue length does an incoming req see (Count)
system.mem_ctrl.wrQLenPdf::15                   10025                       # What write queue length does an incoming req see (Count)
system.mem_ctrl.wrQLenPdf::16                   10121                       # What write queue length does an incoming req see (Count)
system.mem_ctrl.wrQLenPdf::17                   10191                       # What write queue length does an incoming req see (Count)
system.mem_ctrl.wrQLenPdf::18                   10191                       # What write queue length does an incoming req see (Count)
system.mem_ctrl.wrQLenPdf::19                   10191                       # What write queue length does an incoming req see (Count)
system.mem_ctrl.wrQLenPdf::20                   10191                       # What write queue length does an incoming req see (Count)
system.mem_ctrl.wrQLenPdf::21                   10191                       # What write queue length does an incoming req see (Count)
system.mem_ctrl.wrQLenPdf::22                   10191                       # What write queue length does an incoming req see (Count)
system.mem_ctrl.wrQLenPdf::23                   10191                       # What write queue length does an incoming req see (Count)
system.mem_ctrl.wrQLenPdf::24                   10191                       # What write queue length does an incoming req see (Count)
system.mem_ctrl.wrQLenPdf::25                   10191                       # What write queue length does an incoming req see (Count)
system.mem_ctrl.wrQLenPdf::26                   10191                       # What write queue length does an incoming req see (Count)
system.mem_ctrl.wrQLenPdf::27                   10190                       # What write queue length does an incoming req see (Count)
system.mem_ctrl.wrQLenPdf::28                   10190                       # What write queue length does an incoming req see (Count)
system.mem_ctrl.wrQLenPdf::29                   10190                       # What write queue length does an incoming req see (Count)
system.mem_ctrl.wrQLenPdf::30                   10190                       # What write queue length does an incoming req see (Count)
system.mem_ctrl.wrQLenPdf::31                   10190                       # What write queue length does an incoming req see (Count)
system.mem_ctrl.wrQLenPdf::32                   10190                       # What write queue length does an incoming req see (Count)
system.mem_ctrl.wrQLenPdf::33                       0                       # What write queue length does an incoming req see (Count)
system.mem_ctrl.wrQLenPdf::34                       0                       # What write queue length does an incoming req see (Count)
system.mem_ctrl.wrQLenPdf::35                       0                       # What write queue length does an incoming req see (Count)
system.mem_ctrl.wrQLenPdf::36                       0                       # What write queue length does an incoming req see (Count)
system.mem_ctrl.wrQLenPdf::37                       0                       # What write queue length does an incoming req see (Count)
system.mem_ctrl.wrQLenPdf::38                       0                       # What write queue length does an incoming req see (Count)
system.mem_ctrl.wrQLenPdf::39                       0                       # What write queue length does an incoming req see (Count)
system.mem_ctrl.wrQLenPdf::40                       0                       # What write queue length does an incoming req see (Count)
system.mem_ctrl.wrQLenPdf::41                       0                       # What write queue length does an incoming req see (Count)
system.mem_ctrl.wrQLenPdf::42                       0                       # What write queue length does an incoming req see (Count)
system.mem_ctrl.wrQLenPdf::43                       0                       # What write queue length does an incoming req see (Count)
system.mem_ctrl.wrQLenPdf::44                       0                       # What write queue length does an incoming req see (Count)
system.mem_ctrl.wrQLenPdf::45                       0                       # What write queue length does an incoming req see (Count)
system.mem_ctrl.wrQLenPdf::46                       0                       # What write queue length does an incoming req see (Count)
system.mem_ctrl.wrQLenPdf::47                       0                       # What write queue length does an incoming req see (Count)
system.mem_ctrl.wrQLenPdf::48                       0                       # What write queue length does an incoming req see (Count)
system.mem_ctrl.wrQLenPdf::49                       0                       # What write queue length does an incoming req see (Count)
system.mem_ctrl.wrQLenPdf::50                       0                       # What write queue length does an incoming req see (Count)
system.mem_ctrl.wrQLenPdf::51                       0                       # What write queue length does an incoming req see (Count)
system.mem_ctrl.wrQLenPdf::52                       0                       # What write queue length does an incoming req see (Count)
system.mem_ctrl.wrQLenPdf::53                       0                       # What write queue length does an incoming req see (Count)
system.mem_ctrl.wrQLenPdf::54                       0                       # What write queue length does an incoming req see (Count)
system.mem_ctrl.wrQLenPdf::55                       0                       # What write queue length does an incoming req see (Count)
system.mem_ctrl.wrQLenPdf::56                       0                       # What write queue length does an incoming req see (Count)
system.mem_ctrl.wrQLenPdf::57                       0                       # What write queue length does an incoming req see (Count)
system.mem_ctrl.wrQLenPdf::58                       0                       # What write queue length does an incoming req see (Count)
system.mem_ctrl.wrQLenPdf::59                       0                       # What write queue length does an incoming req see (Count)
system.mem_ctrl.wrQLenPdf::60                       0                       # What write queue length does an incoming req see (Count)
system.mem_ctrl.wrQLenPdf::61                       0                       # What write queue length does an incoming req see (Count)
system.mem_ctrl.wrQLenPdf::62                       0                       # What write queue length does an incoming req see (Count)
system.mem_ctrl.wrQLenPdf::63                       0                       # What write queue length does an incoming req see (Count)
system.mem_ctrl.rdPerTurnAround::samples        10190                       # Reads before turning the bus around for writes (Count)
system.mem_ctrl.rdPerTurnAround::mean      102.540824                       # Reads before turning the bus around for writes (Count)
system.mem_ctrl.rdPerTurnAround::gmean      62.442924                       # Reads before turning the bus around for writes (Count)
system.mem_ctrl.rdPerTurnAround::stdev      99.546183                       # Reads before turning the bus around for writes (Count)
system.mem_ctrl.rdPerTurnAround::0-127           6518     63.96%     63.96% # Reads before turning the bus around for writes (Count)
system.mem_ctrl.rdPerTurnAround::128-255         2942     28.87%     92.84% # Reads before turning the bus around for writes (Count)
system.mem_ctrl.rdPerTurnAround::256-383          664      6.52%     99.35% # Reads before turning the bus around for writes (Count)
system.mem_ctrl.rdPerTurnAround::384-511           42      0.41%     99.76% # Reads before turning the bus around for writes (Count)
system.mem_ctrl.rdPerTurnAround::512-639           15      0.15%     99.91% # Reads before turning the bus around for writes (Count)
system.mem_ctrl.rdPerTurnAround::640-767            2      0.02%     99.93% # Reads before turning the bus around for writes (Count)
system.mem_ctrl.rdPerTurnAround::768-895            3      0.03%     99.96% # Reads before turning the bus around for writes (Count)
system.mem_ctrl.rdPerTurnAround::896-1023            1      0.01%     99.97% # Reads before turning the bus around for writes (Count)
system.mem_ctrl.rdPerTurnAround::1024-1151            1      0.01%     99.98% # Reads before turning the bus around for writes (Count)
system.mem_ctrl.rdPerTurnAround::1152-1279            1      0.01%     99.99% # Reads before turning the bus around for writes (Count)
system.mem_ctrl.rdPerTurnAround::2176-2303            1      0.01%    100.00% # Reads before turning the bus around for writes (Count)
system.mem_ctrl.rdPerTurnAround::total          10190                       # Reads before turning the bus around for writes (Count)
system.mem_ctrl.wrPerTurnAround::samples        10190                       # Writes before turning the bus around for reads (Count)
system.mem_ctrl.wrPerTurnAround::mean       17.976840                       # Writes before turning the bus around for reads (Count)
system.mem_ctrl.wrPerTurnAround::gmean      17.975760                       # Writes before turning the bus around for reads (Count)
system.mem_ctrl.wrPerTurnAround::stdev       0.190699                       # Writes before turning the bus around for reads (Count)
system.mem_ctrl.wrPerTurnAround::16                70      0.69%      0.69% # Writes before turning the bus around for reads (Count)
system.mem_ctrl.wrPerTurnAround::17                96      0.94%      1.63% # Writes before turning the bus around for reads (Count)
system.mem_ctrl.wrPerTurnAround::18             10024     98.37%    100.00% # Writes before turning the bus around for reads (Count)
system.mem_ctrl.wrPerTurnAround::total          10190                       # Writes before turning the bus around for reads (Count)
system.mem_ctrl.bytesReadWrQ                  5725056                       # Total number of bytes read from write queue (Byte)
system.mem_ctrl.bytesReadSys                 72620992                       # Total read bytes from the system interface side (Byte)
system.mem_ctrl.bytesWrittenSys              15805824                       # Total written bytes from the system interface side (Byte)
system.mem_ctrl.avgRdBWSys               67796613.43913049                       # Average system read bandwidth in Byte/s ((Byte/Second))
system.mem_ctrl.avgWrBWSys               14755806.96852683                       # Average system write bandwidth in Byte/s ((Byte/Second))
system.mem_ctrl.totGap                   1071159287015                       # Total gap between requests (Tick)
system.mem_ctrl.avgGap                      775264.76                       # Average gap between requests ((Tick/Count))
system.mem_ctrl.requestorReadBytes::cpu.inst     35051776                       # Per-requestor bytes read from memory (Byte)
system.mem_ctrl.requestorReadBytes::cpu.data     31844160                       # Per-requestor bytes read from memory (Byte)
system.mem_ctrl.requestorWriteBytes::writebacks     11723776                       # Per-requestor bytes write to memory (Byte)
system.mem_ctrl.requestorReadRate::cpu.inst 32723206.367478307337                       # Per-requestor bytes read from memory rate ((Byte/Second))
system.mem_ctrl.requestorReadRate::cpu.data 29728679.633208829910                       # Per-requestor bytes read from memory rate ((Byte/Second))
system.mem_ctrl.requestorWriteRate::writebacks 10944938.751579646021                       # Per-requestor bytes write to memory rate ((Byte/Second))
system.mem_ctrl.requestorReadAccesses::cpu.inst       547684                       # Per-requestor read serviced memory accesses (Count)
system.mem_ctrl.requestorReadAccesses::cpu.data       587019                       # Per-requestor read serviced memory accesses (Count)
system.mem_ctrl.requestorWriteAccesses::writebacks       246966                       # Per-requestor write serviced memory accesses (Count)
system.mem_ctrl.requestorReadTotalLat::cpu.inst  16524305934                       # Per-requestor read total memory access latency (Tick)
system.mem_ctrl.requestorReadTotalLat::cpu.data  17467357331                       # Per-requestor read total memory access latency (Tick)
system.mem_ctrl.requestorWriteTotalLat::writebacks 25465020118744                       # Per-requestor write total memory access latency (Tick)
system.mem_ctrl.requestorReadAvgLat::cpu.inst     30171.24                       # Per-requestor read average memory access latency ((Tick/Count))
system.mem_ctrl.requestorReadAvgLat::cpu.data     29756.03                       # Per-requestor read average memory access latency ((Tick/Count))
system.mem_ctrl.requestorWriteAvgLat::writebacks 103111440.92                       # Per-requestor write average memory access latency ((Tick/Count))
system.mem_ctrl.dram.bytesRead::cpu.inst     35051776                       # Number of bytes read from this memory (Byte)
system.mem_ctrl.dram.bytesRead::cpu.data     37569216                       # Number of bytes read from this memory (Byte)
system.mem_ctrl.dram.bytesRead::total        72620992                       # Number of bytes read from this memory (Byte)
system.mem_ctrl.dram.bytesInstRead::cpu.inst     35051776                       # Number of instructions bytes read from this memory (Byte)
system.mem_ctrl.dram.bytesInstRead::total     35051776                       # Number of instructions bytes read from this memory (Byte)
system.mem_ctrl.dram.bytesWritten::writebacks     15805824                       # Number of bytes written to this memory (Byte)
system.mem_ctrl.dram.bytesWritten::total     15805824                       # Number of bytes written to this memory (Byte)
system.mem_ctrl.dram.numReads::cpu.inst        547684                       # Number of read requests responded to by this memory (Count)
system.mem_ctrl.dram.numReads::cpu.data        587019                       # Number of read requests responded to by this memory (Count)
system.mem_ctrl.dram.numReads::total          1134703                       # Number of read requests responded to by this memory (Count)
system.mem_ctrl.dram.numWrites::writebacks       246966                       # Number of write requests responded to by this memory (Count)
system.mem_ctrl.dram.numWrites::total          246966                       # Number of write requests responded to by this memory (Count)
system.mem_ctrl.dram.bwRead::cpu.inst        32723206                       # Total read bandwidth from this memory ((Byte/Second))
system.mem_ctrl.dram.bwRead::cpu.data        35073407                       # Total read bandwidth from this memory ((Byte/Second))
system.mem_ctrl.dram.bwRead::total           67796613                       # Total read bandwidth from this memory ((Byte/Second))
system.mem_ctrl.dram.bwInstRead::cpu.inst     32723206                       # Instruction read bandwidth from this memory ((Byte/Second))
system.mem_ctrl.dram.bwInstRead::total       32723206                       # Instruction read bandwidth from this memory ((Byte/Second))
system.mem_ctrl.dram.bwWrite::writebacks     14755807                       # Write bandwidth from this memory ((Byte/Second))
system.mem_ctrl.dram.bwWrite::total          14755807                       # Write bandwidth from this memory ((Byte/Second))
system.mem_ctrl.dram.bwTotal::writebacks     14755807                       # Total bandwidth to/from this memory ((Byte/Second))
system.mem_ctrl.dram.bwTotal::cpu.inst       32723206                       # Total bandwidth to/from this memory ((Byte/Second))
system.mem_ctrl.dram.bwTotal::cpu.data       35073407                       # Total bandwidth to/from this memory ((Byte/Second))
system.mem_ctrl.dram.bwTotal::total          82552420                       # Total bandwidth to/from this memory ((Byte/Second))
system.mem_ctrl.dram.readBursts               1045249                       # Number of DRAM read bursts (Count)
system.mem_ctrl.dram.writeBursts               183184                       # Number of DRAM write bursts (Count)
system.mem_ctrl.dram.perBankRdBursts::0         49043                       # Per bank write bursts (Count)
system.mem_ctrl.dram.perBankRdBursts::1        113037                       # Per bank write bursts (Count)
system.mem_ctrl.dram.perBankRdBursts::2         48140                       # Per bank write bursts (Count)
system.mem_ctrl.dram.perBankRdBursts::3         37607                       # Per bank write bursts (Count)
system.mem_ctrl.dram.perBankRdBursts::4        146735                       # Per bank write bursts (Count)
system.mem_ctrl.dram.perBankRdBursts::5         15639                       # Per bank write bursts (Count)
system.mem_ctrl.dram.perBankRdBursts::6        158180                       # Per bank write bursts (Count)
system.mem_ctrl.dram.perBankRdBursts::7         49802                       # Per bank write bursts (Count)
system.mem_ctrl.dram.perBankRdBursts::8         30595                       # Per bank write bursts (Count)
system.mem_ctrl.dram.perBankRdBursts::9         29506                       # Per bank write bursts (Count)
system.mem_ctrl.dram.perBankRdBursts::10        50326                       # Per bank write bursts (Count)
system.mem_ctrl.dram.perBankRdBursts::11       200009                       # Per bank write bursts (Count)
system.mem_ctrl.dram.perBankRdBursts::12         7042                       # Per bank write bursts (Count)
system.mem_ctrl.dram.perBankRdBursts::13        10577                       # Per bank write bursts (Count)
system.mem_ctrl.dram.perBankRdBursts::14        36123                       # Per bank write bursts (Count)
system.mem_ctrl.dram.perBankRdBursts::15        62888                       # Per bank write bursts (Count)
system.mem_ctrl.dram.perBankWrBursts::0         25690                       # Per bank write bursts (Count)
system.mem_ctrl.dram.perBankWrBursts::1          9338                       # Per bank write bursts (Count)
system.mem_ctrl.dram.perBankWrBursts::2         17031                       # Per bank write bursts (Count)
system.mem_ctrl.dram.perBankWrBursts::3           551                       # Per bank write bursts (Count)
system.mem_ctrl.dram.perBankWrBursts::4           422                       # Per bank write bursts (Count)
system.mem_ctrl.dram.perBankWrBursts::5          1967                       # Per bank write bursts (Count)
system.mem_ctrl.dram.perBankWrBursts::6         13933                       # Per bank write bursts (Count)
system.mem_ctrl.dram.perBankWrBursts::7         17016                       # Per bank write bursts (Count)
system.mem_ctrl.dram.perBankWrBursts::8         16271                       # Per bank write bursts (Count)
system.mem_ctrl.dram.perBankWrBursts::9         17387                       # Per bank write bursts (Count)
system.mem_ctrl.dram.perBankWrBursts::10        12350                       # Per bank write bursts (Count)
system.mem_ctrl.dram.perBankWrBursts::11         2654                       # Per bank write bursts (Count)
system.mem_ctrl.dram.perBankWrBursts::12          517                       # Per bank write bursts (Count)
system.mem_ctrl.dram.perBankWrBursts::13        11465                       # Per bank write bursts (Count)
system.mem_ctrl.dram.perBankWrBursts::14        11207                       # Per bank write bursts (Count)
system.mem_ctrl.dram.perBankWrBursts::15        25385                       # Per bank write bursts (Count)
system.mem_ctrl.dram.totQLat              14393244515                       # Total ticks spent queuing (Tick)
system.mem_ctrl.dram.totBusLat             5226245000                       # Total ticks spent in databus transfers (Tick)
system.mem_ctrl.dram.totMemAccLat         33991663265                       # Total ticks spent from burst creation until serviced by the DRAM (Tick)
system.mem_ctrl.dram.avgQLat                 13770.16                       # Average queueing delay per DRAM burst ((Tick/Count))
system.mem_ctrl.dram.avgBusLat                5000.00                       # Average bus latency per DRAM burst ((Tick/Count))
system.mem_ctrl.dram.avgMemAccLat            32520.16                       # Average memory access latency per DRAM burst ((Tick/Count))
system.mem_ctrl.dram.readRowHits               454396                       # Number of row buffer hits during reads (Count)
system.mem_ctrl.dram.writeRowHits              154723                       # Number of row buffer hits during writes (Count)
system.mem_ctrl.dram.readRowHitRate             43.47                       # Row buffer hit rate for reads (Ratio)
system.mem_ctrl.dram.writeRowHitRate            84.46                       # Row buffer hit rate for writes (Ratio)
system.mem_ctrl.dram.bytesPerActivate::samples       619308                       # Bytes accessed per row activation (Byte)
system.mem_ctrl.dram.bytesPerActivate::mean   126.947057                       # Bytes accessed per row activation (Byte)
system.mem_ctrl.dram.bytesPerActivate::gmean    95.875650                       # Bytes accessed per row activation (Byte)
system.mem_ctrl.dram.bytesPerActivate::stdev   135.022433                       # Bytes accessed per row activation (Byte)
system.mem_ctrl.dram.bytesPerActivate::0-127       412310     66.58%     66.58% # Bytes accessed per row activation (Byte)
system.mem_ctrl.dram.bytesPerActivate::128-255       120103     19.39%     85.97% # Bytes accessed per row activation (Byte)
[...]
system.mem_ctrl.dram.bwRead::cpu.data        25531335                       # Total read bandwidth from this memory ((Byte/Second))
system.mem_ctrl.dram.bwRead::total          109193496                       # Total read bandwidth from this memory ((Byte/Second))
system.mem_ctrl.dram.bwInstRead::cpu.inst     83662161                       # Instruction read bandwidth from this memory ((Byte/Second))
system.mem_ctrl.dram.bwInstRead::total       83662161                       # Instruction read bandwidth from this memory ((Byte/Second))
system.mem_ctrl.dram.bwWrite::writebacks     13671209                       # Write bandwidth from this memory ((Byte/Second))
system.mem_ctrl.dram.bwWrite::total          13671209                       # Write bandwidth from this memory ((Byte/Second))
system.mem_ctrl.dram.bwTotal::writebacks     13671209                       # Total bandwidth to/from this memory ((Byte/Second))
system.mem_ctrl.dram.bwTotal::cpu.inst       83662161                       # Total bandwidth to/from this memory ((Byte/Second))
system.mem_ctrl.dram.bwTotal::cpu.data       25531335                       # Total bandwidth to/from this memory ((Byte/Second))
system.mem_ctrl.dram.bwTotal::total         122864705                       # Total bandwidth to/from this memory ((Byte/Second))
system.mem_ctrl.dram.readBursts                144738                       # Number of DRAM read bursts (Count)
system.mem_ctrl.dram.writeBursts                 9973                       # Number of DRAM write bursts (Count)
system.mem_ctrl.dram.perBankRdBursts::0           926                       # Per bank write bursts (Count)
system.mem_ctrl.dram.perBankRdBursts::1          3902                       # Per bank write bursts (Count)
system.mem_ctrl.dram.perBankRdBursts::2          1171                       # Per bank write bursts (Count)
system.mem_ctrl.dram.perBankRdBursts::3         27970                       # Per bank write bursts (Count)
system.mem_ctrl.dram.perBankRdBursts::4          7741                       # Per bank write bursts (Count)
system.mem_ctrl.dram.perBankRdBursts::5          7596                       # Per bank write bursts (Count)
system.mem_ctrl.dram.perBankRdBursts::6          2975                       # Per bank write bursts (Count)
system.mem_ctrl.dram.perBankRdBursts::7         10770                       # Per bank write bursts (Count)
system.mem_ctrl.dram.perBankRdBursts::8         17701                       # Per bank write bursts (Count)
system.mem_ctrl.dram.perBankRdBursts::9          1177                       # Per bank write bursts (Count)
system.mem_ctrl.dram.perBankRdBursts::10        11515                       # Per bank write bursts (Count)
system.mem_ctrl.dram.perBankRdBursts::11        30682                       # Per bank write bursts (Count)
system.mem_ctrl.dram.perBankRdBursts::12         4512                       # Per bank write bursts (Count)
system.mem_ctrl.dram.perBankRdBursts::13         6830                       # Per bank write bursts (Count)
system.mem_ctrl.dram.perBankRdBursts::14         6011                       # Per bank write bursts (Count)
system.mem_ctrl.dram.perBankRdBursts::15         3259                       # Per bank write bursts (Count)
system.mem_ctrl.dram.perBankWrBursts::0           539                       # Per bank write bursts (Count)
system.mem_ctrl.dram.perBankWrBursts::1           551                       # Per bank write bursts (Count)
system.mem_ctrl.dram.perBankWrBursts::2           578                       # Per bank write bursts (Count)
system.mem_ctrl.dram.perBankWrBursts::3           648                       # Per bank write bursts (Count)
system.mem_ctrl.dram.perBankWrBursts::4           482                       # Per bank write bursts (Count)
system.mem_ctrl.dram.perBankWrBursts::5           408                       # Per bank write bursts (Count)
system.mem_ctrl.dram.perBankWrBursts::6           586                       # Per bank write bursts (Count)
system.mem_ctrl.dram.perBankWrBursts::7           882                       # Per bank write bursts (Count)
system.mem_ctrl.dram.perBankWrBursts::8           985                       # Per bank write bursts (Count)
system.mem_ctrl.dram.perBankWrBursts::9           840                       # Per bank write bursts (Count)
system.mem_ctrl.dram.perBankWrBursts::10          533                       # Per bank write bursts (Count)
system.mem_ctrl.dram.perBankWrBursts::11          479                       # Per bank write bursts (Count)
system.mem_ctrl.dram.perBankWrBursts::12          403                       # Per bank write bursts (Count)
system.mem_ctrl.dram.perBankWrBursts::13         1048                       # Per bank write bursts (Count)
system.mem_ctrl.dram.perBankWrBursts::14          500                       # Per bank write bursts (Count)
system.mem_ctrl.dram.perBankWrBursts::15          511                       # Per bank write bursts (Count)
system.mem_ctrl.dram.totQLat               1380090614                       # Total ticks spent queuing (Tick)
system.mem_ctrl.dram.totBusLat              723690000                       # Total ticks spent in databus transfers (Tick)
system.mem_ctrl.dram.totMemAccLat          4093928114                       # Total ticks spent from burst creation until serviced by the DRAM (Tick)
system.mem_ctrl.dram.avgQLat                  9535.10                       # Average queueing delay per DRAM burst ((Tick/Count))
system.mem_ctrl.dram.avgBusLat                5000.00                       # Average bus latency per DRAM burst ((Tick/Count))
system.mem_ctrl.dram.avgMemAccLat            28285.10                       # Average memory access latency per DRAM burst ((Tick/Count))
system.mem_ctrl.dram.readRowHits                97213                       # Number of row buffer hits during reads (Count)
system.mem_ctrl.dram.writeRowHits                8835                       # Number of row buffer hits during writes (Count)
system.mem_ctrl.dram.readRowHitRate             67.16                       # Row buffer hit rate for reads (Ratio)
system.mem_ctrl.dram.writeRowHitRate            88.59                       # Row buffer hit rate for writes (Ratio)
system.mem_ctrl.dram.bytesPerActivate::samples        48662                       # Bytes accessed per row activation (Byte)
system.mem_ctrl.dram.bytesPerActivate::mean   203.479019                       # Bytes accessed per row activation (Byte)
system.mem_ctrl.dram.bytesPerActivate::gmean   145.034809                       # Bytes accessed per row activation (Byte)
system.mem_ctrl.dram.bytesPerActivate::stdev   186.184476                       # Bytes accessed per row activation (Byte)
system.mem_ctrl.dram.bytesPerActivate::0-127        19223     39.50%     39.50% # Bytes accessed per row activation (Byte)
system.mem_ctrl.dram.bytesPerActivate::128-255        13718     28.19%     67.69% # Bytes accessed per row activation (Byte)
system.mem_ctrl.dram.bytesPerActivate::256-383         6761     13.89%     81.59% # Bytes accessed per row activation (Byte)
system.mem_ctrl.dram.bytesPerActivate::384-511         4312      8.86%     90.45% # Bytes accessed per row activation (Byte)
system.mem_ctrl.dram.bytesPerActivate::512-639         2915      5.99%     96.44% # Bytes accessed per row activation (Byte)
system.mem_ctrl.dram.bytesPerActivate::640-767          911      1.87%     98.31% # Bytes accessed per row activation (Byte)
system.mem_ctrl.dram.bytesPerActivate::768-895           96      0.20%     98.51% # Bytes accessed per row activation (Byte)
system.mem_ctrl.dram.bytesPerActivate::896-1023           94      0.19%     98.70% # Bytes accessed per row activation (Byte)
system.mem_ctrl.dram.bytesPerActivate::1024-1151          632      1.30%    100.00% # Bytes accessed per row activation (Byte)
system.mem_ctrl.dram.bytesPerActivate::total        48662                       # Bytes accessed per row activation (Byte)
system.mem_ctrl.dram.dramBytesRead            9263232                       # Total bytes read (Byte)
system.mem_ctrl.dram.dramBytesWritten          638272                       # Total bytes written (Byte)
system.mem_ctrl.dram.avgRdBW               101.997084                       # Average DRAM read bandwidth in MiBytes/s ((Byte/Second))
system.mem_ctrl.dram.avgWrBW                 7.027988                       # Average DRAM write bandwidth in MiBytes/s ((Byte/Second))
system.mem_ctrl.dram.peakBW                  12800.00                       # Theoretical peak bandwidth in MiByte/s ((Byte/Second))
system.mem_ctrl.dram.busUtil                     0.85                       # Data bus utilization in percentage (Ratio)
system.mem_ctrl.dram.busUtilRead                 0.80                       # Data bus utilization in percentage for reads (Ratio)
system.mem_ctrl.dram.busUtilWrite                0.05                       # Data bus utilization in percentage for writes (Ratio)
system.mem_ctrl.dram.pageHitRate                68.55                       # Row buffer hit rate, read and write combined (Ratio)
system.mem_ctrl.dram.power_state.pwrStateResidencyTicks::UNDEFINED  90818596145                       # Cumulative time (in ticks) in various power states (Tick)
system.mem_ctrl.dram.rank0.actEnergy        157551240                       # Energy for activate commands per rank (pJ) (Joule)
system.mem_ctrl.dram.rank0.preEnergy         83736675                       # Energy for precharge commands per rank (pJ) (Joule)
system.mem_ctrl.dram.rank0.readEnergy       450184140                       # Energy for read commands per rank (pJ) (Joule)
system.mem_ctrl.dram.rank0.writeEnergy       24398280                       # Energy for write commands per rank (pJ) (Joule)
system.mem_ctrl.dram.rank0.refreshEnergy 7169160960.000001                       # Energy for refresh commands per rank (pJ) (Joule)
system.mem_ctrl.dram.rank0.actBackEnergy  30260052270                       # Energy for active background per rank (pJ) (Joule)
system.mem_ctrl.dram.rank0.preBackEnergy   9392191680                       # Energy for precharge background per rank (pJ) (Joule)
system.mem_ctrl.dram.rank0.actPowerDownEnergy            0                       # Energy for active power-down per rank (pJ) (Joule)
system.mem_ctrl.dram.rank0.prePowerDownEnergy            0                       # Energy for precharge power-down per rank (pJ) (Joule)
system.mem_ctrl.dram.rank0.selfRefreshEnergy            0                       # Energy for self refresh per rank (pJ) (Joule)
system.mem_ctrl.dram.rank0.totalEnergy    47537275245                       # Total energy per rank (pJ) (Joule)
system.mem_ctrl.dram.rank0.averagePower    523.431073                       # Core power per rank (mW) (Watt)
system.mem_ctrl.dram.rank0.totalIdleTime            0                       # Total Idle time Per DRAM Rank (Tick)
system.mem_ctrl.dram.rank0.pwrStateTime::IDLE  24137429979                       # Time in different power states (Tick)
system.mem_ctrl.dram.rank0.pwrStateTime::REF   3032640000                       # Time in different power states (Tick)
system.mem_ctrl.dram.rank0.pwrStateTime::SREF            0                       # Time in different power states (Tick)
system.mem_ctrl.dram.rank0.pwrStateTime::PRE_PDN            0                       # Time in different power states (Tick)
system.mem_ctrl.dram.rank0.pwrStateTime::ACT  63648526166                       # Time in different power states (Tick)
system.mem_ctrl.dram.rank0.pwrStateTime::ACT_PDN            0                       # Time in different power states (Tick)
system.mem_ctrl.dram.rank1.actEnergy        189902580                       # Energy for activate commands per rank (pJ) (Joule)
system.mem_ctrl.dram.rank1.preEnergy        100935615                       # Energy for precharge commands per rank (pJ) (Joule)
system.mem_ctrl.dram.rank1.readEnergy       583245180                       # Energy for read commands per rank (pJ) (Joule)
system.mem_ctrl.dram.rank1.writeEnergy       27660780                       # Energy for write commands per rank (pJ) (Joule)
system.mem_ctrl.dram.rank1.refreshEnergy 7169160960.000001                       # Energy for refresh commands per rank (pJ) (Joule)
system.mem_ctrl.dram.rank1.actBackEnergy  31468018500                       # Energy for active background per rank (pJ) (Joule)
system.mem_ctrl.dram.rank1.preBackEnergy   8374956960                       # Energy for precharge background per rank (pJ) (Joule)
system.mem_ctrl.dram.rank1.actPowerDownEnergy            0                       # Energy for active power-down per rank (pJ) (Joule)
system.mem_ctrl.dram.rank1.prePowerDownEnergy            0                       # Energy for precharge power-down per rank (pJ) (Joule)
system.mem_ctrl.dram.rank1.selfRefreshEnergy            0                       # Energy for self refresh per rank (pJ) (Joule)
system.mem_ctrl.dram.rank1.totalEnergy    47913880575                       # Total energy per rank (pJ) (Joule)
system.mem_ctrl.dram.rank1.averagePower    527.577860                       # Core power per rank (mW) (Watt)
system.mem_ctrl.dram.rank1.totalIdleTime            0                       # Total Idle time Per DRAM Rank (Tick)
system.mem_ctrl.dram.rank1.pwrStateTime::IDLE  21494763500                       # Time in different power states (Tick)
system.mem_ctrl.dram.rank1.pwrStateTime::REF   3032640000                       # Time in different power states (Tick)
system.mem_ctrl.dram.rank1.pwrStateTime::SREF            0                       # Time in different power states (Tick)
system.mem_ctrl.dram.rank1.pwrStateTime::PRE_PDN            0                       # Time in different power states (Tick)
system.mem_ctrl.dram.rank1.pwrStateTime::ACT  66291192645                       # Time in different power states (Tick)
system.mem_ctrl.dram.rank1.pwrStateTime::ACT_PDN            0                       # Time in different power states (Tick)
system.mem_ctrl.power_state.pwrStateResidencyTicks::UNDEFINED  90818596145                       # Cumulative time (in ticks) in various power states (Tick)
system.membus.transDist::ReadResp              143831                       # Transaction distribution (Count)
system.membus.transDist::WritebackDirty         19400                       # Transaction distribution (Count)
system.membus.transDist::CleanEvict            135550                       # Transaction distribution (Count)
system.membus.transDist::ReadExReq              11119                       # Transaction distribution (Count)
system.membus.transDist::ReadExResp             11119                       # Transaction distribution (Count)
system.membus.transDist::ReadSharedReq         143831                       # Transaction distribution (Count)
system.membus.pktCount_system.cpu.l1d.mem_side_port::system.mem_ctrl.port       108690                       # Packet count per connected requestor and responder (Count)
system.membus.pktCount_system.cpu.l1d.mem_side_port::total       108690                       # Packet count per connected requestor and responder (Count)
system.membus.pktCount_system.cpu.l1i.mem_side_port::system.mem_ctrl.port       356160                       # Packet count per connected requestor and responder (Count)
system.membus.pktCount_system.cpu.l1i.mem_side_port::total       356160                       # Packet count per connected requestor and responder (Count)
system.membus.pktCount::total                  464850                       # Packet count per connected requestor and responder (Count)
system.membus.pktSize_system.cpu.l1d.mem_side_port::system.mem_ctrl.port      3560320                       # Cumulative packet size per connected requestor and responder (Byte)
system.membus.pktSize_system.cpu.l1d.mem_side_port::total      3560320                       # Cumulative packet size per connected requestor and responder (Byte)
system.membus.pktSize_system.cpu.l1i.mem_side_port::system.mem_ctrl.port      7598080                       # Cumulative packet size per connected requestor and responder (Byte)
system.membus.pktSize_system.cpu.l1i.mem_side_port::total      7598080                       # Cumulative packet size per connected requestor and responder (Byte)
system.membus.pktSize::total                 11158400                       # Cumulative packet size per connected requestor and responder (Byte)
system.membus.snoops                                0                       # Total snoops (Count)
system.membus.snoopTraffic                          0                       # Total snoop traffic (Byte)
system.membus.snoopFanout::samples             154950                       # Request fanout histogram (Count)
system.membus.snoopFanout::mean                     0                       # Request fanout histogram (Count)
system.membus.snoopFanout::stdev                    0                       # Request fanout histogram (Count)
system.membus.snoopFanout::underflows               0      0.00%      0.00% # Request fanout histogram (Count)
system.membus.snoopFanout::0                   154950    100.00%    100.00% # Request fanout histogram (Count)
system.membus.snoopFanout::1                        0      0.00%    100.00% # Request fanout histogram (Count)
system.membus.snoopFanout::2                        0      0.00%    100.00% # Request fanout histogram (Count)
system.membus.snoopFanout::overflows                0      0.00%    100.00% # Request fanout histogram (Count)
system.membus.snoopFanout::min_value                0                       # Request fanout histogram (Count)
system.membus.snoopFanout::max_value                0                       # Request fanout histogram (Count)
system.membus.snoopFanout::total               154950                       # Request fanout histogram (Count)
system.membus.power_state.pwrStateResidencyTicks::UNDEFINED  90818596145                       # Cumulative time (in ticks) in various power states (Tick)
system.membus.reqLayer2.occupancy          5166537500                       # Layer occupancy (ticks) (Tick)
system.membus.reqLayer2.utilization               0.1                       # Layer utilization (Ratio)
system.membus.respLayer2.occupancy         2482798575                       # Layer occupancy (ticks) (Tick)
system.membus.respLayer2.utilization              0.0                       # Layer utilization (Ratio)
system.membus.respLayer3.occupancy         8072622979                       # Layer occupancy (ticks) (Tick)
system.membus.respLayer3.utilization              0.1                       # Layer utilization (Ratio)
system.membus.snoop_filter.totRequests         309900                       # Total number of requests made to the snoop filter. (Count)
system.membus.snoop_filter.hitSingleRequests       154950                       # Number of requests hitting in the snoop filter with a single holder of the requested data. (Count)
system.membus.snoop_filter.hitMultiRequests            0                       # Number of requests hitting in the snoop filter with multiple (>1) holders of the requested data. (Count)
system.membus.snoop_filter.totSnoops                0                       # Total number of snoops made to the snoop filter. (Count)
system.membus.snoop_filter.hitSingleSnoops            0                       # Number of snoops hitting in the snoop filter with a single holder of the requested data. (Count)
system.membus.snoop_filter.hitMultiSnoops            0                       # Number of snoops hitting in the snoop filter with multiple (>1) holders of the requested data. (Count)
system.workload.inst.arm                            0                       # number of arm instructions executed (Count)
system.workload.inst.quiesce                        0                       # number of quiesce instructions executed (Count)

---------- End Simulation Statistics   ----------
