
---------- Begin Simulation Statistics ----------
simSeconds                                   2.290446                       # Number of seconds simulated (Second)
simTicks                                 2290445897421                       # Number of ticks simulated (Tick)
finalTick                                2290445897421                       # Number of ticks from beginning of simulation (restored from checkpoints and never reset) (Tick)
simFreq                                  1000000000000                       # The number of ticks per simulated second ((Tick/Second))
hostSeconds                                    109.98                       # Real time elapsed on the host (Second)
hostTickRate                              20825095663                       # The number of ticks simulated per host second (ticks/s) ((Tick/Second))
hostMemory                                    8655092                       # Number of bytes of host memory used (Byte)
simInsts                                    102661850                       # Number of instructions simulated (Count)
simOps                                      171082653                       # Number of ops (including micro ops) simulated (Count)
hostInstRate                                   933417                       # Simulator instruction rate (inst/s) ((Count/Second))
hostOpRate                                    1555509                       # Simulator op (including micro ops) rate (op/s) ((Count/Second))
system.clk_domain.clock                         13333                       # Clock period in ticks (Tick)
system.clk_domain.voltage_domain.voltage            1                       # Voltage in Volts (Volt)
system.cpu.numCycles                        171787737                       # Number of cpu cycles simulated (Cycle)
system.cpu.cpi                               1.673322                       # CPI: cycles per instruction (core level) ((Cycle/Count))
system.cpu.ipc                               0.597614                       # IPC: instructions per cycle (core level) ((Count/Cycle))
system.cpu.numWorkItemsStarted                      0                       # Number of work items this cpu started (Count)
system.cpu.numWorkItemsCompleted                    0                       # Number of work items this cpu completed (Count)
system.cpu.commitStats0.numInsts            102662716                       # Number of instructions committed (thread level) (Count)
system.cpu.commitStats0.numOps              171083719                       # Number of ops (including micro ops) committed (thread level) (Count)
system.cpu.commitStats0.numInstsNotNOP              0                       # Number of instructions committed excluding NOPs or prefetches (Count)
system.cpu.commitStats0.numOpsNotNOP                0                       # Number of Ops (including micro ops) Simulated (Count)
system.cpu.commitStats0.cpi                  1.673322                       # CPI: cycles per instruction (thread level) ((Cycle/Count))
system.cpu.commitStats0.ipc                  0.597614                       # IPC: instructions per cycle (thread level) ((Count/Cycle))
system.cpu.commitStats0.numMemRefs                  0                       # Number of memory references committed (Count)
system.cpu.commitStats0.numFpInsts            1645040                       # Number of float instructions (Count)
system.cpu.commitStats0.numIntInsts         167975025                       # Number of integer instructions (Count)
system.cpu.commitStats0.numLoadInsts         21501907                       # Number of load instructions (Count)
system.cpu.commitStats0.numStoreInsts         9402718                       # Number of store instructions (Count)
system.cpu.commitStats0.numVecInsts                 0                       # Number of vector instructions (Count)
system.cpu.commitStats0.committedInstType::No_OpClass      2329282      1.36%      1.36% # Class of committed instruction. (Count)
system.cpu.commitStats0.committedInstType::IntAlu    137245678     80.22%     81.58% # Class of committed instruction. (Count)
system.cpu.commitStats0.committedInstType::IntMult        50447      0.03%     81.61% # Class of committed instruction. (Count)
system.cpu.commitStats0.committedInstType::IntDiv        40178      0.02%     81.64% # Class of committed instruction. (Count)
system.cpu.commitStats0.committedInstType::FloatAdd         8889      0.01%     81.64% # Class of committed instruction. (Count)
system.cpu.commitStats0.committedInstType::FloatCmp            0      0.00%     81.64% # Class of committed instruction. (Count)
system.cpu.commitStats0.committedInstType::FloatCvt         1456      0.00%     81.64% # Class of committed instruction. (Count)
system.cpu.commitStats0.committedInstType::FloatMult            0      0.00%     81.64% # Class of committed instruction. (Count)
system.cpu.commitStats0.committedInstType::FloatMultAcc            0      0.00%     81.64% # Class of committed instruction. (Count)
system.cpu.commitStats0.committedInstType::FloatDiv            0      0.00%     81.64% # Class of committed instruction. (Count)
system.cpu.commitStats0.committedInstType::FloatMisc            0      0.00%     81.64% # Class of committed instruction. (Count)
system.cpu.commitStats0.committedInstType::FloatSqrt            0      0.00%     81.64% # Class of committed instruction. (Count)
system.cpu.commitStats0.committedInstType::SimdAdd         6892      0.00%     81.65% # Class of committed instruction. (Count)
system.cpu.commitStats0.committedInstType::SimdAddAcc            0      0.00%     81.65% # Class of committed instruction. (Count)
system.cpu.commitStats0.committedInstType::SimdAlu       125067      0.07%     81.72% # Class of committed instruction. (Count)
system.cpu.commitStats0.committedInstType::SimdCmp           12      0.00%     81.72% # Class of committed instruction. (Count)
system.cpu.commitStats0.committedInstType::SimdCvt        17672      0.01%     81.73% # Class of committed instruction. (Count)
system.cpu.commitStats0.committedInstType::SimdMisc       351108      0.21%     81.93% # Class of committed instruction. (Count)
system.cpu.commitStats0.committedInstType::SimdMult            0      0.00%     81.93% # Class of committed instruction. (Count)
system.cpu.commitStats0.committedInstType::SimdMultAcc            0      0.00%     81.93% # Class of committed instruction. (Count)
system.cpu.commitStats0.committedInstType::SimdMatMultAcc            0      0.00%     81.93% # Class of committed instruction. (Count)
system.cpu.commitStats0.committedInstType::SimdShift         1835      0.00%     81.94% # Class of committed instruction. (Count)
system.cpu.commitStats0.committedInstType::SimdShiftAcc            0      0.00%     81.94% # Class of committed instruction. (Count)
system.cpu.commitStats0.committedInstType::SimdDiv            0      0.00%     81.94% # Class of committed instruction. (Count)
system.cpu.commitStats0.committedInstType::SimdSqrt            0      0.00%     81.94% # Class of committed instruction. (Count)
system.cpu.commitStats0.committedInstType::SimdFloatAdd          124      0.00%     81.94% # Class of committed instruction. (Count)
system.cpu.commitStats0.committedInstType::SimdFloatAlu            0      0.00%     81.94% # Class of committed instruction. (Count)
system.cpu.commitStats0.committedInstType::SimdFloatCmp            0      0.00%     81.94% # Class of committed instruction. (Count)
system.cpu.commitStats0.committedInstType::SimdFloatCvt          330      0.00%     81.94% # Class of committed instruction. (Count)
system.cpu.commitStats0.committedInstType::SimdFloatDiv          124      0.00%     81.94% # Class of committed instruction. (Count)
system.cpu.commitStats0.committedInstType::SimdFloatMisc            0      0.00%     81.94% # Class of committed instruction. (Count)
system.cpu.commitStats0.committedInstType::SimdFloatMult            0      0.00%     81.94% # Class of committed instruction. (Count)
system.cpu.commitStats0.committedInstType::SimdFloatMultAcc            0      0.00%     81.94% # Class of committed instruction. (Count)
system.cpu.commitStats0.committedInstType::SimdFloatMatMultAcc            0      0.00%     81.94% # Class of committed instruction. (Count)
system.cpu.commitStats0.committedInstType::SimdFloatSqrt            0      0.00%     81.94% # Class of committed instruction. (Count)
system.cpu.commitStats0.committedInstType::SimdReduceAdd            0      0.00%     81.94% # Class of committed instruction. (Count)
system.cpu.commitStats0.committedInstType::SimdReduceAlu            0      0.00%     81.94% # Class of committed instruction. (Count)
system.cpu.commitStats0.committedInstType::SimdReduceCmp            0      0.00%     81.94% # Class of committed instruction. (Count)
system.cpu.commitStats0.committedInstType::SimdFloatReduceAdd            0      0.00%     81.94% # Class of committed instruction. (Count)
system.cpu.commitStats0.committedInstType::SimdFloatReduceCmp            0      0.00%     81.94% # Class of committed instruction. (Count)
system.cpu.commitStats0.committedInstType::SimdAes            0      0.00%     81.94% # Class of committed instruction. (Count)
system.cpu.commitStats0.committedInstType::SimdAesMix            0      0.00%     81.94% # Class of committed instruction. (Count)
system.cpu.commitStats0.committedInstType::SimdSha1Hash            0      0.00%     81.94% # Class of committed instruction. (Count)
system.cpu.commitStats0.committedInstType::SimdSha1Hash2            0      0.00%     81.94% # Class of committed instruction. (Count)
system.cpu.commitStats0.committedInstType::SimdSha256Hash            0      0.00%     81.94% # Class of committed instruction. (Count)
system.cpu.commitStats0.committedInstType::SimdSha256Hash2            0      0.00%     81.94% # Class of committed instruction. (Count)
system.cpu.commitStats0.committedInstType::SimdShaSigma2            0      0.00%     81.94% # Class of committed instruction. (Count)
system.cpu.commitStats0.committedInstType::SimdShaSigma3            0      0.00%     81.94% # Class of committed instruction. (Count)
system.cpu.commitStats0.committedInstType::SimdPredAlu            0      0.00%     81.94% # Class of committed instruction. (Count)
system.cpu.commitStats0.committedInstType::Matrix            0      0.00%     81.94% # Class of committed instruction. (Count)
system.cpu.commitStats0.committedInstType::MatrixMov            0      0.00%     81.94% # Class of committed instruction. (Count)
system.cpu.commitStats0.committedInstType::MatrixOP            0      0.00%     81.94% # Class of committed instruction. (Count)
system.cpu.commitStats0.committedInstType::MemRead     21110656     12.34%     94.28% # Class of committed instruction. (Count)
system.cpu.commitStats0.committedInstType::MemWrite      8916963      5.21%     99.49% # Class of committed instruction. (Count)
system.cpu.commitStats0.committedInstType::FloatMemRead       391251      0.23%     99.72% # Class of committed instruction. (Count)
system.cpu.commitStats0.committedInstType::FloatMemWrite       485755      0.28%    100.00% # Class of committed instruction. (Count)
system.cpu.commitStats0.committedInstType::IprAccess            0      0.00%    100.00% # Class of committed instruction. (Count)
system.cpu.commitStats0.committedInstType::InstPrefetch            0      0.00%    100.00% # Class of committed instruction. (Count)
system.cpu.commitStats0.committedInstType::SimdUnitStrideLoad            0      0.00%    100.00% # Class of committed instruction. (Count)
system.cpu.commitStats0.committedInstType::SimdUnitStrideStore            0      0.00%    100.00% # Class of committed instruction. (Count)
system.cpu.commitStats0.committedInstType::SimdUnitStrideMaskLoad            0      0.00%    100.00% # Class of committed instruction. (Count)
system.cpu.commitStats0.committedInstType::SimdUnitStrideMaskStore            0      0.00%    100.00% # Class of committed instruction. (Count)
system.cpu.commitStats0.committedInstType::SimdStridedLoad            0      0.00%    100.00% # Class of committed instruction. (Count)
system.cpu.commitStats0.committedInstType::SimdStridedStore            0      0.00%    100.00% # Class of committed instruction. (Count)
system.cpu.commitStats0.committedInstType::SimdIndexedLoad            0      0.00%    100.00% # Class of committed instruction. (Count)
system.cpu.commitStats0.committedInstType::SimdIndexedStore            0      0.00%    100.00% # Class of committed instruction. (Count)
system.cpu.commitStats0.committedInstType::SimdWholeRegisterLoad            0      0.00%    100.00% # Class of committed instruction. (Count)
system.cpu.commitStats0.committedInstType::SimdWholeRegisterStore            0      0.00%    100.00% # Class of committed instruction. (Count)
system.cpu.commitStats0.committedInstType::SimdUnitStrideFaultOnlyFirstLoad            0      0.00%    100.00% # Class of committed instruction. (Count)
system.cpu.commitStats0.committedInstType::SimdUnitStrideSegmentedLoad            0      0.00%    100.00% # Class of committed instruction. (Count)
system.cpu.commitStats0.committedInstType::SimdUnitStrideSegmentedStore            0      0.00%    100.00% # Class of committed instruction. (Count)
system.cpu.commitStats0.committedInstType::SimdExt            0      0.00%    100.00% # Class of committed instruction. (Count)
system.cpu.commitStats0.committedInstType::SimdFloatExt            0      0.00%    100.00% # Class of committed instruction. (Count)
system.cpu.commitStats0.committedInstType::SimdConfig            0      0.00%    100.00% # Class of committed instruction. (Count)
system.cpu.commitStats0.committedInstType::total    171083719                       # Class of committed instruction. (Count)
system.cpu.commitStats0.committedControl::IsControl     19097673                       # Class of control type instructions committed (Count)
system.cpu.commitStats0.committedControl::IsDirectControl     18799863                       # Class of control type instructions committed (Count)
system.cpu.commitStats0.committedControl::IsIndirectControl       297496                       # Class of control type instructions committed (Count)
system.cpu.commitStats0.committedControl::IsCondControl     17199188                       # Class of control type instructions committed (Count)
system.cpu.commitStats0.committedControl::IsUncondControl      1898171                       # Class of control type instructions committed (Count)
system.cpu.commitStats0.committedControl::IsCall       226577                       # Class of control type instructions committed (Count)
system.cpu.commitStats0.committedControl::IsReturn       226572                       # Class of control type instructions committed (Count)
system.cpu.exec_context.thread_0.numMatAluAccesses            0                       # Number of matrix alu accesses (Count)
system.cpu.exec_context.thread_0.numCallsReturns       453149                       # Number of times a function call or return occured (Count)
system.cpu.exec_context.thread_0.numMatInsts            0                       # Number of matrix instructions (Count)
system.cpu.exec_context.thread_0.numIdleCycles            0                       # Number of idle cycles (Cycle)
system.cpu.exec_context.thread_0.numBusyCycles    171787737                       # Number of busy cycles (Cycle)
system.cpu.exec_context.thread_0.notIdleFraction            1                       # Percentage of non-idle cycles (Ratio)
system.cpu.exec_context.thread_0.idleFraction            0                       # Percentage of idle cycles (Ratio)
system.cpu.executeStats0.numInsts                   0                       # Number of executed instructions (Count)
system.cpu.executeStats0.numNop                     0                       # Number of nop insts executed (Count)
system.cpu.executeStats0.numBranches                0                       # Number of branches executed (Count)
system.cpu.executeStats0.numLoadInsts               0                       # Number of load instructions executed (Count)
system.cpu.executeStats0.numStoreInsts       30904625                       # Number of stores executed (Count)
system.cpu.executeStats0.instRate                   0                       # Inst execution rate ((Count/Cycle))
system.cpu.executeStats0.numFpAluAccesses      1645040                       # Number of float alu accesses (Count)
system.cpu.executeStats0.numFpRegReads        2669877                       # Number of times the floating registers were read (Count)
system.cpu.executeStats0.numFpRegWrites       1146629                       # Number of times the floating registers were written (Count)
system.cpu.executeStats0.numIntAluAccesses    167975025                       # Number of integer alu accesses (Count)
system.cpu.executeStats0.numIntRegReads     217725963                       # Number of times the integer registers were read (Count)
system.cpu.executeStats0.numIntRegWrites    118725024                       # Number of times the integer registers were written (Count)
system.cpu.executeStats0.numMemRefs          30904625                       # Number of memory refs (Count)
system.cpu.executeStats0.numMiscRegReads     68900353                       # Number of times the Misc registers were read (Count)
system.cpu.executeStats0.numMiscRegWrites          819                       # Number of times the Misc registers were written (Count)
system.cpu.executeStats0.numVecAluAccesses            0                       # Number of vector alu accesses (Count)
system.cpu.executeStats0.numDiscardedOps            0                       # Number of ops (including micro ops) which were discarded before commit (Count)
system.cpu.fetchStats0.numInsts             102662716                       # Number of instructions fetched (thread level) (Count)
system.cpu.fetchStats0.numOps               171083719                       # Number of ops (including micro ops) fetched (thread level) (Count)
system.cpu.fetchStats0.fetchRate             0.597614                       # Number of inst fetches per cycle ((Count/Cycle))
system.cpu.fetchStats0.numBranches           19097673                       # Number of branches fetched (Count)
system.cpu.fetchStats0.branchRate            0.111170                       # Number of branch fetches per cycle (Ratio)
system.cpu.fetchStats0.numFetchSuspends             0                       # Number of times Execute suspended instruction fetching (Count)
system.cpu.interrupts.clk_domain.clock         213328                       # Clock period in ticks (Tick)
system.cpu.l1d.demandHits::cpu.data          30171077                       # number of demand (read+write) hits (Count)
system.cpu.l1d.demandHits::total             30171077                       # number of demand (read+write) hits (Count)
system.cpu.l1d.overallHits::cpu.data         30171077                       # number of overall hits (Count)
system.cpu.l1d.overallHits::total            30171077                       # number of overall hits (Count)
system.cpu.l1d.demandMisses::cpu.data          718489                       # number of demand (read+write) misses (Count)
system.cpu.l1d.demandMisses::total             718489                       # number of demand (read+write) misses (Count)
system.cpu.l1d.overallMisses::cpu.data         718489                       # number of overall misses (Count)
system.cpu.l1d.overallMisses::total            718489                       # number of overall misses (Count)
system.cpu.l1d.demandMissLatency::cpu.data 149195296691                       # number of demand (read+write) miss ticks (Tick)
system.cpu.l1d.demandMissLatency::total  149195296691                       # number of demand (read+write) miss ticks (Tick)
system.cpu.l1d.overallMissLatency::cpu.data 149195296691                       # number of overall miss ticks (Tick)
system.cpu.l1d.overallMissLatency::total 149195296691                       # number of overall miss ticks (Tick)
system.cpu.l1d.demandAccesses::cpu.data      30889566                       # number of demand (read+write) accesses (Count)
system.cpu.l1d.demandAccesses::total         30889566                       # number of demand (read+write) accesses (Count)
system.cpu.l1d.overallAccesses::cpu.data     30889566                       # number of overall (read+write) accesses (Count)
system.cpu.l1d.overallAccesses::total        30889566                       # number of overall (read+write) accesses (Count)
system.cpu.l1d.demandMissRate::cpu.data      0.023260                       # miss rate for demand accesses (Ratio)
system.cpu.l1d.demandMissRate::total         0.023260                       # miss rate for demand accesses (Ratio)
system.cpu.l1d.overallMissRate::cpu.data     0.023260                       # miss rate for overall accesses (Ratio)
system.cpu.l1d.overallMissRate::total        0.023260                       # miss rate for overall accesses (Ratio)
system.cpu.l1d.demandAvgMissLatency::cpu.data 207651.469530                       # average overall miss latency in ticks ((Tick/Count))
system.cpu.l1d.demandAvgMissLatency::total 207651.469530                       # average overall miss latency in ticks ((Tick/Count))
system.cpu.l1d.overallAvgMissLatency::cpu.data 207651.469530                       # average overall miss latency ((Tick/Count))
system.cpu.l1d.overallAvgMissLatency::total 207651.469530                       # average overall miss latency ((Tick/Count))
system.cpu.l1d.blockedCycles::no_mshrs              0                       # number of cycles access was blocked (Cycle)
system.cpu.l1d.blockedCycles::no_targets            0                       # number of cycles access was blocked (Cycle)
system.cpu.l1d.blockedCauses::no_mshrs              0                       # number of times access was blocked (Count)
system.cpu.l1d.blockedCauses::no_targets            0                       # number of times access was blocked (Count)
system.cpu.l1d.avgBlocked::no_mshrs               nan                       # average number of cycles each access was blocked ((Cycle/Count))
system.cpu.l1d.avgBlocked::no_targets             nan                       # average number of cycles each access was blocked ((Cycle/Count))
system.cpu.l1d.writebacks::writebacks          356288                       # number of writebacks (Count)
system.cpu.l1d.writebacks::total               356288                       # number of writebacks (Count)
system.cpu.l1d.demandMshrMisses::cpu.data       718489                       # number of demand (read+write) MSHR misses (Count)
system.cpu.l1d.demandMshrMisses::total         718489                       # number of demand (read+write) MSHR misses (Count)
system.cpu.l1d.overallMshrMisses::cpu.data       718489                       # number of overall MSHR misses (Count)
system.cpu.l1d.overallMshrMisses::total        718489                       # number of overall MSHR misses (Count)
system.cpu.l1d.demandMshrMissLatency::cpu.data 139615682854                       # number of demand (read+write) MSHR miss ticks (Tick)
system.cpu.l1d.demandMshrMissLatency::total 139615682854                       # number of demand (read+write) MSHR miss ticks (Tick)
system.cpu.l1d.overallMshrMissLatency::cpu.data 139615682854                       # number of overall MSHR miss ticks (Tick)
system.cpu.l1d.overallMshrMissLatency::total 139615682854                       # number of overall MSHR miss ticks (Tick)
system.cpu.l1d.demandMshrMissRate::cpu.data     0.023260                       # mshr miss ratio for demand accesses (Ratio)
system.cpu.l1d.demandMshrMissRate::total     0.023260                       # mshr miss ratio for demand accesses (Ratio)
system.cpu.l1d.overallMshrMissRate::cpu.data     0.023260                       # mshr miss ratio for overall accesses (Ratio)
system.cpu.l1d.overallMshrMissRate::total     0.023260                       # mshr miss ratio for overall accesses (Ratio)
system.cpu.l1d.demandAvgMshrMissLatency::cpu.data 194318.469530                       # average overall mshr miss latency ((Tick/Count))
system.cpu.l1d.demandAvgMshrMissLatency::total 194318.469530                       # average overall mshr miss latency ((Tick/Count))
system.cpu.l1d.overallAvgMshrMissLatency::cpu.data 194318.469530                       # average overall mshr miss latency ((Tick/Count))
system.cpu.l1d.overallAvgMshrMissLatency::total 194318.469530                       # average overall mshr miss latency ((Tick/Count))
system.cpu.l1d.replacements                    718504                       # number of replacements (Count)
system.cpu.l1d.LockedRMWReadReq.hits::cpu.data         7550                       # number of LockedRMWReadReq hits (Count)
system.cpu.l1d.LockedRMWReadReq.hits::total         7550                       # number of LockedRMWReadReq hits (Count)
system.cpu.l1d.LockedRMWReadReq.misses::cpu.data           79                       # number of LockedRMWReadReq misses (Count)
system.cpu.l1d.LockedRMWReadReq.misses::total           79                       # number of LockedRMWReadReq misses (Count)
system.cpu.l1d.LockedRMWReadReq.missLatency::cpu.data     16359591                       # number of LockedRMWReadReq miss ticks (Tick)
system.cpu.l1d.LockedRMWReadReq.missLatency::total     16359591                       # number of LockedRMWReadReq miss ticks (Tick)
system.cpu.l1d.LockedRMWReadReq.accesses::cpu.data         7629                       # number of LockedRMWReadReq accesses(hits+misses) (Count)
system.cpu.l1d.LockedRMWReadReq.accesses::total         7629                       # number of LockedRMWReadReq accesses(hits+misses) (Count)
system.cpu.l1d.LockedRMWReadReq.missRate::cpu.data     0.010355                       # miss rate for LockedRMWReadReq accesses (Ratio)
system.cpu.l1d.LockedRMWReadReq.missRate::total     0.010355                       # miss rate for LockedRMWReadReq accesses (Ratio)
system.cpu.l1d.LockedRMWReadReq.avgMissLatency::cpu.data 207083.430380                       # average LockedRMWReadReq miss latency ((Tick/Count))
system.cpu.l1d.LockedRMWReadReq.avgMissLatency::total 207083.430380                       # average LockedRMWReadReq miss latency ((Tick/Count))
system.cpu.l1d.LockedRMWReadReq.mshrMisses::cpu.data           79                       # number of LockedRMWReadReq MSHR misses (Count)
system.cpu.l1d.LockedRMWReadReq.mshrMisses::total           79                       # number of LockedRMWReadReq MSHR misses (Count)
system.cpu.l1d.LockedRMWReadReq.mshrMissLatency::cpu.data    132330025                       # number of LockedRMWReadReq MSHR miss ticks (Tick)
system.cpu.l1d.LockedRMWReadReq.mshrMissLatency::total    132330025                       # number of LockedRMWReadReq MSHR miss ticks (Tick)
system.cpu.l1d.LockedRMWReadReq.mshrMissRate::cpu.data     0.010355                       # mshr miss rate for LockedRMWReadReq accesses (Ratio)
system.cpu.l1d.LockedRMWReadReq.mshrMissRate::total     0.010355                       # mshr miss rate for LockedRMWReadReq accesses (Ratio)
system.cpu.l1d.LockedRMWReadReq.avgMshrMissLatency::cpu.data 1675063.607595                       # average LockedRMWReadReq mshr miss latency ((Tick/Count))
system.cpu.l1d.LockedRMWReadReq.avgMshrMissLatency::total 1675063.607595                       # average LockedRMWReadReq mshr miss latency ((Tick/Count))
system.cpu.l1d.LockedRMWWriteReq.hits::cpu.data         7629                       # number of LockedRMWWriteReq hits (Count)
system.cpu.l1d.LockedRMWWriteReq.hits::total         7629                       # number of LockedRMWWriteReq hits (Count)
system.cpu.l1d.LockedRMWWriteReq.accesses::cpu.data         7629                       # number of LockedRMWWriteReq accesses(hits+misses) (Count)
system.cpu.l1d.LockedRMWWriteReq.accesses::total         7629                       # number of LockedRMWWriteReq accesses(hits+misses) (Count)
system.cpu.l1d.ReadReq.hits::cpu.data        21087458                       # number of ReadReq hits (Count)
system.cpu.l1d.ReadReq.hits::total           21087458                       # number of ReadReq hits (Count)
system.cpu.l1d.ReadReq.misses::cpu.data        407029                       # number of ReadReq misses (Count)
system.cpu.l1d.ReadReq.misses::total           407029                       # number of ReadReq misses (Count)
system.cpu.l1d.ReadReq.missLatency::cpu.data  86432545799                       # number of ReadReq miss ticks (Tick)
system.cpu.l1d.ReadReq.missLatency::total  86432545799                       # number of ReadReq miss ticks (Tick)
system.cpu.l1d.ReadReq.accesses::cpu.data     21494487                       # number of ReadReq accesses(hits+misses) (Count)
system.cpu.l1d.ReadReq.accesses::total       21494487                       # number of ReadReq accesses(hits+misses) (Count)
system.cpu.l1d.ReadReq.missRate::cpu.data     0.018936                       # miss rate for ReadReq accesses (Ratio)
system.cpu.l1d.ReadReq.missRate::total       0.018936                       # miss rate for ReadReq accesses (Ratio)
system.cpu.l1d.ReadReq.avgMissLatency::cpu.data 212349.846814                       # average ReadReq miss latency ((Tick/Count))
system.cpu.l1d.ReadReq.avgMissLatency::total 212349.846814                       # average ReadReq miss latency ((Tick/Count))
system.cpu.l1d.ReadReq.mshrMisses::cpu.data       407029                       # number of ReadReq MSHR misses (Count)
system.cpu.l1d.ReadReq.mshrMisses::total       407029                       # number of ReadReq MSHR misses (Count)
system.cpu.l1d.ReadReq.mshrMissLatency::cpu.data  81005628142                       # number of ReadReq MSHR miss ticks (Tick)
system.cpu.l1d.ReadReq.mshrMissLatency::total  81005628142                       # number of ReadReq MSHR miss ticks (Tick)
system.cpu.l1d.ReadReq.mshrMissRate::cpu.data     0.018936                       # mshr miss rate for ReadReq accesses (Ratio)
system.cpu.l1d.ReadReq.mshrMissRate::total     0.018936                       # mshr miss rate for ReadReq accesses (Ratio)
system.cpu.l1d.ReadReq.avgMshrMissLatency::cpu.data 199016.846814                       # average ReadReq mshr miss latency ((Tick/Count))
system.cpu.l1d.ReadReq.avgMshrMissLatency::total 199016.846814                       # average ReadReq mshr miss latency ((Tick/Count))
system.cpu.l1d.WriteReq.hits::cpu.data        9083619                       # number of WriteReq hits (Count)
system.cpu.l1d.WriteReq.hits::total           9083619                       # number of WriteReq hits (Count)
system.cpu.l1d.WriteReq.misses::cpu.data       311460                       # number of WriteReq misses (Count)
system.cpu.l1d.WriteReq.misses::total          311460                       # number of WriteReq misses (Count)
system.cpu.l1d.WriteReq.missLatency::cpu.data  62762750892                       # number of WriteReq miss ticks (Tick)
system.cpu.l1d.WriteReq.missLatency::total  62762750892                       # number of WriteReq miss ticks (Tick)
system.cpu.l1d.WriteReq.accesses::cpu.data      9395079                       # number of WriteReq accesses(hits+misses) (Count)
system.cpu.l1d.WriteReq.accesses::total       9395079                       # number of WriteReq accesses(hits+misses) (Count)
system.cpu.l1d.WriteReq.missRate::cpu.data     0.033151                       # miss rate for WriteReq accesses (Ratio)
system.cpu.l1d.WriteReq.missRate::total      0.033151                       # miss rate for WriteReq accesses (Ratio)
system.cpu.l1d.WriteReq.avgMissLatency::cpu.data 201511.432903                       # average WriteReq miss latency ((Tick/Count))
system.cpu.l1d.WriteReq.avgMissLatency::total 201511.432903                       # average WriteReq miss latency ((Tick/Count))
system.cpu.l1d.WriteReq.mshrMisses::cpu.data       311460                       # number of WriteReq MSHR misses (Count)
system.cpu.l1d.WriteReq.mshrMisses::total       311460                       # number of WriteReq MSHR misses (Count)
system.cpu.l1d.WriteReq.mshrMissLatency::cpu.data  58610054712                       # number of WriteReq MSHR miss ticks (Tick)
system.cpu.l1d.WriteReq.mshrMissLatency::total  58610054712                       # number of WriteReq MSHR miss ticks (Tick)
system.cpu.l1d.WriteReq.mshrMissRate::cpu.data     0.033151                       # mshr miss rate for WriteReq accesses (Ratio)
system.cpu.l1d.WriteReq.mshrMissRate::total     0.033151                       # mshr miss rate for WriteReq accesses (Ratio)
system.cpu.l1d.WriteReq.avgMshrMissLatency::cpu.data 188178.432903                       # average WriteReq mshr miss latency ((Tick/Count))
system.cpu.l1d.WriteReq.avgMshrMissLatency::total 188178.432903                       # average WriteReq mshr miss latency ((Tick/Count))
system.cpu.l1d.power_state.pwrStateResidencyTicks::UNDEFINED 2290445897421                       # Cumulative time (in ticks) in various power states (Tick)
system.cpu.l1d.tags.tagsInUse               63.999351                       # Average ticks per tags in use ((Tick/Count))
system.cpu.l1d.tags.totalRefs                30904073                       # Total number of references to valid blocks. (Count)
system.cpu.l1d.tags.sampledRefs                718504                       # Sample count of references to valid blocks. (Count)
system.cpu.l1d.tags.avgRefs                 43.011692                       # Average number of references to valid blocks. ((Count/Count))
system.cpu.l1d.tags.warmupTick                 479988                       # The tick when the warmup percentage was hit. (Tick)
system.cpu.l1d.tags.occupancies::cpu.data    63.999351                       # Average occupied blocks per tick, per requestor ((Count/Tick))
system.cpu.l1d.tags.avgOccs::cpu.data        0.999990                       # Average percentage of cache occupancy ((Ratio/Tick))
system.cpu.l1d.tags.avgOccs::total           0.999990                       # Average percentage of cache occupancy ((Ratio/Tick))
system.cpu.l1d.tags.occupanciesTaskId::1024           64                       # Occupied blocks per task id (Count)
system.cpu.l1d.tags.ageTaskId_1024::0              15                       # Occupied blocks per task id, per block age (Count)
system.cpu.l1d.tags.ageTaskId_1024::1              49                       # Occupied blocks per task id, per block age (Count)
system.cpu.l1d.tags.ratioOccsTaskId::1024            1                       # Ratio of occupied blocks and all blocks, per task id (Ratio)
system.cpu.l1d.tags.tagAccesses              62528216                       # Number of tag accesses (Count)
system.cpu.l1d.tags.dataAccesses             62528216                       # Number of data accesses (Count)
system.cpu.l1d.tags.power_state.pwrStateResidencyTicks::UNDEFINED 2290445897421                       # Cumulative time (in ticks) in various power states (Tick)
system.cpu.l1i.demandHits::cpu.inst         127875714                       # number of demand (read+write) hits (Count)
system.cpu.l1i.demandHits::total            127875714                       # number of demand (read+write) hits (Count)
system.cpu.l1i.overallHits::cpu.inst        127875714                       # number of overall hits (Count)
system.cpu.l1i.overallHits::total           127875714                       # number of overall hits (Count)
system.cpu.l1i.demandMisses::cpu.inst          120298                       # number of demand (read+write) misses (Count)
system.cpu.l1i.demandMisses::total             120298                       # number of demand (read+write) misses (Count)
system.cpu.l1i.overallMisses::cpu.inst         120298                       # number of overall misses (Count)
system.cpu.l1i.overallMisses::total            120298                       # number of overall misses (Count)
system.cpu.l1i.demandMissLatency::cpu.inst  25825034358                       # number of demand (read+write) miss ticks (Tick)
system.cpu.l1i.demandMissLatency::total   25825034358                       # number of demand (read+write) miss ticks (Tick)
system.cpu.l1i.overallMissLatency::cpu.inst  25825034358                       # number of overall miss ticks (Tick)
system.cpu.l1i.overallMissLatency::total  25825034358                       # number of overall miss ticks (Tick)
system.cpu.l1i.demandAccesses::cpu.inst     127996012                       # number of demand (read+write) accesses (Count)
system.cpu.l1i.demandAccesses::total        127996012                       # number of demand (read+write) accesses (Count)
system.cpu.l1i.overallAccesses::cpu.inst    127996012                       # number of overall (read+write) accesses (Count)
system.cpu.l1i.overallAccesses::total       127996012                       # number of overall (read+write) accesses (Count)
system.cpu.l1i.demandMissRate::cpu.inst      0.000940                       # miss rate for demand accesses (Ratio)
system.cpu.l1i.demandMissRate::total         0.000940                       # miss rate for demand accesses (Ratio)
system.cpu.l1i.overallMissRate::cpu.inst     0.000940                       # miss rate for overall accesses (Ratio)
system.cpu.l1i.overallMissRate::total        0.000940                       # miss rate for overall accesses (Ratio)
system.cpu.l1i.demandAvgMissLatency::cpu.inst 214675.508803                       # average overall miss latency in ticks ((Tick/Count))
system.cpu.l1i.demandAvgMissLatency::total 214675.508803                       # average overall miss latency in ticks ((Tick/Count))
system.cpu.l1i.overallAvgMissLatency::cpu.inst 214675.508803                       # average overall miss latency ((Tick/Count))
system.cpu.l1i.overallAvgMissLatency::total 214675.508803                       # average overall miss latency ((Tick/Count))
system.cpu.l1i.blockedCycles::no_mshrs              0                       # number of cycles access was blocked (Cycle)
system.cpu.l1i.blockedCycles::no_targets            0                       # number of cycles access was blocked (Cycle)
system.cpu.l1i.blockedCauses::no_mshrs              0                       # number of times access was blocked (Count)
system.cpu.l1i.blockedCauses::no_targets            0                       # number of times access was blocked (Count)
system.cpu.l1i.avgBlocked::no_mshrs               nan                       # average number of cycles each access was blocked ((Cycle/Count))
system.cpu.l1i.avgBlocked::no_targets             nan                       # average number of cycles each access was blocked ((Cycle/Count))
system.cpu.l1i.demandMshrMisses::cpu.inst       120298                       # number of demand (read+write) MSHR misses (Count)
system.cpu.l1i.demandMshrMisses::total         120298                       # number of demand (read+write) MSHR misses (Count)
system.cpu.l1i.overallMshrMisses::cpu.inst       120298                       # number of overall MSHR misses (Count)
system.cpu.l1i.overallMshrMisses::total        120298                       # number of overall MSHR misses (Count)
system.cpu.l1i.demandMshrMissLatency::cpu.inst  24221101124                       # number of demand (read+write) MSHR miss ticks (Tick)
system.cpu.l1i.demandMshrMissLatency::total  24221101124                       # number of demand (read+write) MSHR miss ticks (Tick)
system.cpu.l1i.overallMshrMissLatency::cpu.inst  24221101124                       # number of overall MSHR miss ticks (Tick)
system.cpu.l1i.overallMshrMissLatency::total  24221101124                       # number of overall MSHR miss ticks (Tick)
system.cpu.l1i.demandMshrMissRate::cpu.inst     0.000940                       # mshr miss ratio for demand accesses (Ratio)
system.cpu.l1i.demandMshrMissRate::total     0.000940                       # mshr miss ratio for demand accesses (Ratio)
system.cpu.l1i.overallMshrMissRate::cpu.inst     0.000940                       # mshr miss ratio for overall accesses (Ratio)
system.cpu.l1i.overallMshrMissRate::total     0.000940                       # mshr miss ratio for overall accesses (Ratio)
system.cpu.l1i.demandAvgMshrMissLatency::cpu.inst 201342.508803                       # average overall mshr miss latency ((Tick/Count))
system.cpu.l1i.demandAvgMshrMissLatency::total 201342.508803                       # average overall mshr miss latency ((Tick/Count))
system.cpu.l1i.overallAvgMshrMissLatency::cpu.inst 201342.508803                       # average overall mshr miss latency ((Tick/Count))
system.cpu.l1i.overallAvgMshrMissLatency::total 201342.508803                       # average overall mshr miss latency ((Tick/Count))
system.cpu.l1i.replacements                    120234                       # number of replacements (Count)
system.cpu.l1i.ReadReq.hits::cpu.inst       127875714                       # number of ReadReq hits (Count)
system.cpu.l1i.ReadReq.hits::total          127875714                       # number of ReadReq hits (Count)
system.cpu.l1i.ReadReq.misses::cpu.inst        120298                       # number of ReadReq misses (Count)
system.cpu.l1i.ReadReq.misses::total           120298                       # number of ReadReq misses (Count)
system.cpu.l1i.ReadReq.missLatency::cpu.inst  25825034358                       # number of ReadReq miss ticks (Tick)
system.cpu.l1i.ReadReq.missLatency::total  25825034358                       # number of ReadReq miss ticks (Tick)
system.cpu.l1i.ReadReq.accesses::cpu.inst    127996012                       # number of ReadReq accesses(hits+misses) (Count)
system.cpu.l1i.ReadReq.accesses::total      127996012                       # number of ReadReq accesses(hits+misses) (Count)
system.cpu.l1i.ReadReq.missRate::cpu.inst     0.000940                       # miss rate for ReadReq accesses (Ratio)
system.cpu.l1i.ReadReq.missRate::total       0.000940                       # miss rate for ReadReq accesses (Ratio)
system.cpu.l1i.ReadReq.avgMissLatency::cpu.inst 214675.508803                       # average ReadReq miss latency ((Tick/Count))
system.cpu.l1i.ReadReq.avgMissLatency::total 214675.508803                       # average ReadReq miss latency ((Tick/Count))
system.cpu.l1i.ReadReq.mshrMisses::cpu.inst       120298                       # number of ReadReq MSHR misses (Count)
system.cpu.l1i.ReadReq.mshrMisses::total       120298                       # number of ReadReq MSHR misses (Count)
system.cpu.l1i.ReadReq.mshrMissLatency::cpu.inst  24221101124                       # number of ReadReq MSHR miss ticks (Tick)
system.cpu.l1i.ReadReq.mshrMissLatency::total  24221101124                       # number of ReadReq MSHR miss ticks (Tick)
system.cpu.l1i.ReadReq.mshrMissRate::cpu.inst     0.000940                       # mshr miss rate for ReadReq accesses (Ratio)
system.cpu.l1i.ReadReq.mshrMissRate::total     0.000940                       # mshr miss rate for ReadReq accesses (Ratio)
system.cpu.l1i.ReadReq.avgMshrMissLatency::cpu.inst 201342.508803                       # average ReadReq mshr miss latency ((Tick/Count))
system.cpu.l1i.ReadReq.avgMshrMissLatency::total 201342.508803                       # average ReadReq mshr miss latency ((Tick/Count))
system.cpu.l1i.power_state.pwrStateResidencyTicks::UNDEFINED 2290445897421                       # Cumulative time (in ticks) in various power states (Tick)
system.cpu.l1i.tags.tagsInUse               63.998095                       # Average ticks per tags in use ((Tick/Count))
system.cpu.l1i.tags.totalRefs               127884002                       # Total number of references to valid blocks. (Count)
system.cpu.l1i.tags.sampledRefs                120234                       # Sample count of references to valid blocks. (Count)
system.cpu.l1i.tags.avgRefs               1063.625946                       # Average number of references to valid blocks. ((Count/Count))
system.cpu.l1i.tags.warmupTick                 199995                       # The tick when the warmup percentage was hit. (Tick)
system.cpu.l1i.tags.occupancies::cpu.inst    63.998095                       # Average occupied blocks per tick, per requestor ((Count/Tick))
system.cpu.l1i.tags.avgOccs::cpu.inst        0.999970                       # Average percentage of cache occupancy ((Ratio/Tick))
system.cpu.l1i.tags.avgOccs::total           0.999970                       # Average percentage of cache occupancy ((Ratio/Tick))
system.cpu.l1i.tags.occupanciesTaskId::1024           64                       # Occupied blocks per task id (Count)
system.cpu.l1i.tags.ageTaskId_1024::0               5                       # Occupied blocks per task id, per block age (Count)
system.cpu.l1i.tags.ageTaskId_1024::1               4                       # Occupied blocks per task id, per block age (Count)
system.cpu.l1i.tags.ageTaskId_1024::3              47                       # Occupied blocks per task id, per block age (Count)
system.cpu.l1i.tags.ageTaskId_1024::4               8                       # Occupied blocks per task id, per block age (Count)
system.cpu.l1i.tags.ratioOccsTaskId::1024            1                       # Ratio of occupied blocks and all blocks, per task id (Ratio)
system.cpu.l1i.tags.tagAccesses             256112322                       # Number of tag accesses (Count)
system.cpu.l1i.tags.dataAccesses            256112322                       # Number of data accesses (Count)
system.cpu.l1i.tags.power_state.pwrStateResidencyTicks::UNDEFINED 2290445897421                       # Cumulative time (in ticks) in various power states (Tick)
system.cpu.mmu.dtb.rdAccesses                21502388                       # TLB accesses on read requests (Count)
system.cpu.mmu.dtb.wrAccesses                 9403145                       # TLB accesses on write requests (Count)
system.cpu.mmu.dtb.rdMisses                      6020                       # TLB misses on read requests (Count)
system.cpu.mmu.dtb.wrMisses                      2980                       # TLB misses on write requests (Count)
system.cpu.mmu.dtb.walker.power_state.pwrStateResidencyTicks::UNDEFINED 2290445897421                       # Cumulative time (in ticks) in various power states (Tick)
system.cpu.mmu.itb.rdAccesses                       0                       # TLB accesses on read requests (Count)
system.cpu.mmu.itb.wrAccesses               127996158                       # TLB accesses on write requests (Count)
system.cpu.mmu.itb.rdMisses                         0                       # TLB misses on read requests (Count)
system.cpu.mmu.itb.wrMisses                      3738                       # TLB misses on write requests (Count)
system.cpu.mmu.itb.walker.power_state.pwrStateResidencyTicks::UNDEFINED 2290445897421                       # Cumulative time (in ticks) in various power states (Tick)
system.cpu.power_state.pwrStateResidencyTicks::ON 2290445897421                       # Cumulative time (in ticks) in various power states (Tick)
system.cpu.thread_0.numInsts                        0                       # Number of Instructions committed (Count)
system.cpu.thread_0.numOps                          0                       # Number of Ops committed (Count)
system.cpu.thread_0.numMemRefs                      0                       # Number of Memory References (Count)
system.cpu.workload.numSyscalls                   358                       # Number of system calls (Count)
system.mem_ctrl.avgPriority_writebacks::samples    257140.00                       # Average QoS priority value for accepted requests (Count)
system.mem_ctrl.avgPriority_cpu.inst::samples    120298.00                       # Average QoS priority value for accepted requests (Count)
system.mem_ctrl.avgPriority_cpu.data::samples    570515.00                       # Average QoS priority value for accepted requests (Count)
system.mem_ctrl.priorityMinLatency       0.000000018750                       # per QoS priority minimum request to response latency (Second)
system.mem_ctrl.priorityMaxLatency       0.016077710548                       # per QoS priority maximum request to response latency (Second)
system.mem_ctrl.numReadWriteTurnArounds         14312                       # Number of turnarounds from READ to WRITE (Count)
system.mem_ctrl.numWriteReadTurnArounds         14312                       # Number of turnarounds from WRITE to READ (Count)
system.mem_ctrl.numStayReadState              2324796                       # Number of times bus staying in READ state (Count)
system.mem_ctrl.numStayWriteState              243102                       # Number of times bus staying in WRITE state (Count)
system.mem_ctrl.readReqs                       838866                       # Number of read requests accepted (Count)
system.mem_ctrl.writeReqs                      356288                       # Number of write requests accepted (Count)
system.mem_ctrl.readBursts                     838866                       # Number of controller read bursts, including those serviced by the write queue (Count)
system.mem_ctrl.writeBursts                    356288                       # Number of controller write bursts, including those merged in the write queue (Count)
system.mem_ctrl.servicedByWrQ                  148053                       # Number of controller read bursts serviced by the write queue (Count)
system.mem_ctrl.mergedWrBursts                  99148                       # Number of controller write bursts merged with an existing one (Count)
system.mem_ctrl.neitherReadNorWriteReqs             0                       # Number of requests that are neither read nor write (Count)
system.mem_ctrl.avgRdQLen                        1.00                       # Average read queue length when enqueuing ((Count/Tick))
system.mem_ctrl.avgWrQLen                       24.64                       # Average write queue length when enqueuing ((Count/Tick))
system.mem_ctrl.numRdRetry                          0                       # Number of times read queue was full causing retry (Count)
system.mem_ctrl.numWrRetry                          0                       # Number of times write queue was full causing retry (Count)
system.mem_ctrl.readPktSize::0                      0                       # Read request sizes (log2) (Count)
system.mem_ctrl.readPktSize::1                      0                       # Read request sizes (log2) (Count)
system.mem_ctrl.readPktSize::2                      0                       # Read request sizes (log2) (Count)
system.mem_ctrl.readPktSize::3                      0                       # Read request sizes (log2) (Count)
system.mem_ctrl.readPktSize::4                      0                       # Read request sizes (log2) (Count)
system.mem_ctrl.readPktSize::5                      0                       # Read request sizes (log2) (Count)
system.mem_ctrl.readPktSize::6                 838866                       # Read request sizes (log2) (Count)
system.mem_ctrl.writePktSize::0                     0                       # Write request sizes (log2) (Count)
system.mem_ctrl.writePktSize::1                     0                       # Write request sizes (log2) (Count)
system.mem_ctrl.writePktSize::2                     0                       # Write request sizes (log2) (Count)
system.mem_ctrl.writePktSize::3                     0                       # Write request sizes (log2) (Count)
system.mem_ctrl.writePktSize::4                     0                       # Write request sizes (log2) (Count)
system.mem_ctrl.writePktSize::5                     0                       # Write request sizes (log2) (Count)
system.mem_ctrl.writePktSize::6                356288                       # Write request sizes (log2) (Count)
system.mem_ctrl.rdQLenPdf::0                   690690                       # What read queue length does an incoming req see (Count)
system.mem_ctrl.rdQLenPdf::1                      123                       # What read queue length does an incoming req see (Count)
system.mem_ctrl.rdQLenPdf::2                        0                       # What read queue length does an incoming req see (Count)
system.mem_ctrl.rdQLenPdf::3                        0                       # What read queue length does an incoming req see (Count)
system.mem_ctrl.rdQLenPdf::4                        0                       # What read queue length does an incoming req see (Count)
system.mem_ctrl.rdQLenPdf::5                        0                       # What read queue length does an incoming req see (Count)
system.mem_ctrl.rdQLenPdf::6                        0                       # What read queue length does an incoming req see (Count)
system.mem_ctrl.rdQLenPdf::7                        0                       # What read queue length does an incoming req see (Count)
system.mem_ctrl.rdQLenPdf::8                        0                       # What read queue length does an incoming req see (Count)
system.mem_ctrl.rdQLenPdf::9                        0                       # What read queue length does an incoming req see (Count)
system.mem_ctrl.rdQLenPdf::10                       0                       # What read queue length does an incoming req see (Count)
system.mem_ctrl.rdQLenPdf::11                       0                       # What read queue length does an incoming req see (Count)
system.mem_ctrl.rdQLenPdf::12                       0                       # What read queue length does an incoming req see (Count)
system.mem_ctrl.rdQLenPdf::13                       0                       # What read queue length does an incoming req see (Count)
system.mem_ctrl.rdQLenPdf::14                       0                       # What read queue length does an incoming req see (Count)
system.mem_ctrl.rdQLenPdf::15                       0                       # What read queue length does an incoming req see (Count)
system.mem_ctrl.rdQLenPdf::16                       0                       # What read queue length does an incoming req see (Count)
system.mem_ctrl.rdQLenPdf::17                       0                       # What read queue length does an incoming req see (Count)
system.mem_ctrl.rdQLenPdf::18                       0                       # What read queue length does an incoming req see (Count)
system.mem_ctrl.rdQLenPdf::19                       0                       # What read queue length does an incoming req see (Count)
system.mem_ctrl.rdQLenPdf::20                       0                       # What read queue length does an incoming req see (Count)
system.mem_ctrl.rdQLenPdf::21                       0                       # What read queue length does an incoming req see (Count)
system.mem_ctrl.rdQLenPdf::22                       0                       # What read queue length does an incoming req see (Count)
system.mem_ctrl.rdQLenPdf::23                       0                       # What read queue length does an incoming req see (Count)
system.mem_ctrl.rdQLenPdf::24                       0                       # What read queue length does an incoming req see (Count)
system.mem_ctrl.rdQLenPdf::25                       0                       # What read queue length does an incoming req see (Count)
system.mem_ctrl.rdQLenPdf::26                       0                       # What read queue length does an incoming req see (Count)
system.mem_ctrl.rdQLenPdf::27                       0                       # What read queue length does an incoming req see (Count)
system.mem_ctrl.rdQLenPdf::28                       0                       # What read queue length does an incoming req see (Count)
system.mem_ctrl.rdQLenPdf::29                       0                       # What read queue length does an incoming req see (Count)
system.mem_ctrl.rdQLenPdf::30                       0                       # What read queue length does an incoming req see (Count)
system.mem_ctrl.rdQLenPdf::31                       0                       # What read queue length does an incoming req see (Count)
system.mem_ctrl.wrQLenPdf::0                        1                       # What write queue length does an incoming req see (Count)
system.mem_ctrl.wrQLenPdf::1                        1                       # What write queue length does an incoming req see (Count)
system.mem_ctrl.wrQLenPdf::2                        1                       # What write queue length does an incoming req see (Count)
system.mem_ctrl.wrQLenPdf::3                        1                       # What write queue length does an incoming req see (Count)
system.mem_ctrl.wrQLenPdf::4                        1                       # What write queue length does an incoming req see (Count)
system.mem_ctrl.wrQLenPdf::5                        1                       # What write queue length does an incoming req see (Count)
system.mem_ctrl.wrQLenPdf::6                        1                       # What write queue length does an incoming req see (Count)
system.mem_ctrl.wrQLenPdf::7                        1                       # What write queue length does an incoming req see (Count)
system.mem_ctrl.wrQLenPdf::8                        1                       # What write queue length does an incoming req see (Count)
system.mem_ctrl.wrQLenPdf::9                        1                       # What write queue length does an incoming req see (Count)
system.mem_ctrl.wrQLenPdf::10                       1                       # What write queue length does an incoming req see (Count)
system.mem_ctrl.wrQLenPdf::11                       1                       # What write queue length does an incoming req see (Count)
system.mem_ctrl.wrQLenPdf::12                       1                       # What write queue length does an incoming req see (Count)
system.mem_ctrl.wrQLenPdf::13                       1                       # What write queue length does an incoming req see (Count)
system.mem_ctrl.wrQLenPdf::14                       1                       # What write queue length does an incoming req see (Count)
system.mem_ctrl.wrQLenPdf::15                   13927                       # What write queue length does an incoming req see (Count)
system.mem_ctrl.wrQLenPdf::16                   14194                       # What write queue length does an incoming req see (Count)
system.mem_ctrl.wrQLenPdf::17                   14313                       # What write queue length does an incoming req see (Count)
system.mem_ctrl.wrQLenPdf::18                   14313                       # What write queue length does an incoming req see (Count)
system.mem_ctrl.wrQLenPdf::19                   14313                       # What write queue length does an incoming req see (Count)
system.mem_ctrl.wrQLenPdf::20                   14313                       # What write queue length does an incoming req see (Count)
system.mem_ctrl.wrQLenPdf::21                   14314                       # What write queue length does an incoming req see (Count)
system.mem_ctrl.wrQLenPdf::22                   14313                       # What write queue length does an incoming req see (Count)
system.mem_ctrl.wrQLenPdf::23                   14313                       # What write queue length does an incoming req see (Count)
system.mem_ctrl.wrQLenPdf::24                   14313                       # What write queue length does an incoming req see (Count)
system.mem_ctrl.wrQLenPdf::25                   14313                       # What write queue length does an incoming req see (Count)
system.mem_ctrl.wrQLenPdf::26                   14313                       # What write queue length does an incoming req see (Count)
system.mem_ctrl.wrQLenPdf::27                   14313                       # What write queue length does an incoming req see (Count)
system.mem_ctrl.wrQLenPdf::28                   14312                       # What write queue length does an incoming req see (Count)
system.mem_ctrl.wrQLenPdf::29                   14312                       # What write queue length does an incoming req see (Count)
system.mem_ctrl.wrQLenPdf::30                   14312                       # What write queue length does an incoming req see (Count)
system.mem_ctrl.wrQLenPdf::31                   14312                       # What write queue length does an incoming req see (Count)
system.mem_ctrl.wrQLenPdf::32                   14312                       # What write queue length does an incoming req see (Count)
system.mem_ctrl.wrQLenPdf::33                       0                       # What write queue length does an incoming req see (Count)
system.mem_ctrl.wrQLenPdf::34                       0                       # What write queue length does an incoming req see (Count)
system.mem_ctrl.wrQLenPdf::35                       0                       # What write queue length does an incoming req see (Count)
system.mem_ctrl.wrQLenPdf::36                       0                       # What write queue length does an incoming req see (Count)
system.mem_ctrl.wrQLenPdf::37                       0                       # What write queue length does an incoming req see (Count)
system.mem_ctrl.wrQLenPdf::38                       0                       # What write queue length does an incoming req see (Count)
system.mem_ctrl.wrQLenPdf::39                       0                       # What write queue length does an incoming req see (Count)
system.mem_ctrl.wrQLenPdf::40                       0                       # What write queue length does an incoming req see (Count)
system.mem_ctrl.wrQLenPdf::41                       0                       # What write queue length does an incoming req see (Count)
system.mem_ctrl.wrQLenPdf::42                       0                       # What write queue length does an incoming req see (Count)
system.mem_ctrl.wrQLenPdf::43                       0                       # What write queue length does an incoming req see (Count)
system.mem_ctrl.wrQLenPdf::44                       0                       # What write queue length does an incoming req see (Count)
system.mem_ctrl.wrQLenPdf::45                       0                       # What write queue length does an incoming req see (Count)
system.mem_ctrl.wrQLenPdf::46                       0                       # What write queue length does an incoming req see (Count)
system.mem_ctrl.wrQLenPdf::47                       0                       # What write queue length does an incoming req see (Count)
system.mem_ctrl.wrQLenPdf::48                       0                       # What write queue length does an incoming req see (Count)
system.mem_ctrl.wrQLenPdf::49                       0                       # What write queue length does an incoming req see (Count)
system.mem_ctrl.wrQLenPdf::50                       0                       # What write queue length does an incoming req see (Count)
system.mem_ctrl.wrQLenPdf::51                       0                       # What write queue length does an incoming req see (Count)
system.mem_ctrl.wrQLenPdf::52                       0                       # What write queue length does an incoming req see (Count)
system.mem_ctrl.wrQLenPdf::53                       0                       # What write queue length does an incoming req see (Count)
system.mem_ctrl.wrQLenPdf::54                       0                       # What write queue length does an incoming req see (Count)
system.mem_ctrl.wrQLenPdf::55                       0                       # What write queue length does an incoming req see (Count)
system.mem_ctrl.wrQLenPdf::56                       0                       # What write queue length does an incoming req see (Count)
system.mem_ctrl.wrQLenPdf::57                       0                       # What write queue length does an incoming req see (Count)
system.mem_ctrl.wrQLenPdf::58                       0                       # What write queue length does an incoming req see (Count)
system.mem_ctrl.wrQLenPdf::59                       0                       # What write queue length does an incoming req see (Count)
system.mem_ctrl.wrQLenPdf::60                       0                       # What write queue length does an incoming req see (Count)
system.mem_ctrl.wrQLenPdf::61                       0                       # What write queue length does an incoming req see (Count)
system.mem_ctrl.wrQLenPdf::62                       0                       # What write queue length does an incoming req see (Count)
system.mem_ctrl.wrQLenPdf::63                       0                       # What write queue length does an incoming req see (Count)
system.mem_ctrl.rdPerTurnAround::samples        14312                       # Reads before turning the bus around for writes (Count)
system.mem_ctrl.rdPerTurnAround::mean       48.264743                       # Reads before turning the bus around for writes (Count)
system.mem_ctrl.rdPerTurnAround::gmean      38.645689                       # Reads before turning the bus around for writes (Count)
system.mem_ctrl.rdPerTurnAround::stdev      56.410048                       # Reads before turning the bus around for writes (Count)
system.mem_ctrl.rdPerTurnAround::0-127          13841     96.71%     96.71% # Reads before turning the bus around for writes (Count)
system.mem_ctrl.rdPerTurnAround::128-255          340      2.38%     99.08% # Reads before turning the bus around for writes (Count)
system.mem_ctrl.rdPerTurnAround::256-383           41      0.29%     99.37% # Reads before turning the bus around for writes (Count)
system.mem_ctrl.rdPerTurnAround::384-511           57      0.40%     99.77% # Reads before turning the bus around for writes (Count)
system.mem_ctrl.rdPerTurnAround::512-639           22      0.15%     99.92% # Reads before turning the bus around for writes (Count)
system.mem_ctrl.rdPerTurnAround::640-767            5      0.03%     99.96% # Reads before turning the bus around for writes (Count)
system.mem_ctrl.rdPerTurnAround::768-895            2      0.01%     99.97% # Reads before turning the bus around for writes (Count)
system.mem_ctrl.rdPerTurnAround::1024-1151            1      0.01%     99.98% # Reads before turning the bus around for writes (Count)
system.mem_ctrl.rdPerTurnAround::1280-1407            1      0.01%     99.99% # Reads before turning the bus around for writes (Count)
system.mem_ctrl.rdPerTurnAround::1664-1791            1      0.01%     99.99% # Reads before turning the bus around for writes (Count)
system.mem_ctrl.rdPerTurnAround::2048-2175            1      0.01%    100.00% # Reads before turning the bus around for writes (Count)
system.mem_ctrl.rdPerTurnAround::total          14312                       # Reads before turning the bus around for writes (Count)
system.mem_ctrl.wrPerTurnAround::samples        14312                       # Writes before turning the bus around for reads (Count)
system.mem_ctrl.wrPerTurnAround::mean       17.964855                       # Writes before turning the bus around for reads (Count)
system.mem_ctrl.wrPerTurnAround::gmean      17.963351                       # Writes before turning the bus around for reads (Count)
system.mem_ctrl.wrPerTurnAround::stdev       0.225439                       # Writes before turning the bus around for reads (Count)
system.mem_ctrl.wrPerTurnAround::16               119      0.83%      0.83% # Writes before turning the bus around for reads (Count)
system.mem_ctrl.wrPerTurnAround::17               267      1.87%      2.70% # Writes before turning the bus around for reads (Count)
system.mem_ctrl.wrPerTurnAround::18             13924     97.29%     99.99% # Writes before turning the bus around for reads (Count)
system.mem_ctrl.wrPerTurnAround::19                 2      0.01%    100.00% # Writes before turning the bus around for reads (Count)
system.mem_ctrl.wrPerTurnAround::total          14312                       # Writes before turning the bus around for reads (Count)
system.mem_ctrl.bytesReadWrQ                  9475392                       # Total number of bytes read from write queue (Byte)
system.mem_ctrl.bytesReadSys                 53687424                       # Total read bytes from the system interface side (Byte)
system.mem_ctrl.bytesWrittenSys              22802432                       # Total written bytes from the system interface side (Byte)
system.mem_ctrl.avgRdBWSys               23439725.88937860                       # Average system read bandwidth in Byte/s ((Byte/Second))
system.mem_ctrl.avgWrBWSys               9955455.40965413                       # Average system write bandwidth in Byte/s ((Byte/Second))
system.mem_ctrl.totGap                   2290445684093                       # Total gap between requests (Tick)
system.mem_ctrl.avgGap                     1916443.98                       # Average gap between requests ((Tick/Count))
system.mem_ctrl.requestorReadBytes::cpu.inst      7699072                       # Per-requestor bytes read from memory (Byte)
system.mem_ctrl.requestorReadBytes::cpu.data     36512960                       # Per-requestor bytes read from memory (Byte)
system.mem_ctrl.requestorWriteBytes::writebacks     16455232                       # Per-requestor bytes write to memory (Byte)
system.mem_ctrl.requestorReadRate::cpu.inst 3361385.662359025329                       # Per-requestor bytes read from memory rate ((Byte/Second))
system.mem_ctrl.requestorReadRate::cpu.data 15941419.983380932361                       # Per-requestor bytes read from memory rate ((Byte/Second))
system.mem_ctrl.requestorWriteRate::writebacks 7184291.940066468902                       # Per-requestor bytes write to memory rate ((Byte/Second))
system.mem_ctrl.requestorReadAccesses::cpu.inst       120298                       # Per-requestor read serviced memory accesses (Count)
system.mem_ctrl.requestorReadAccesses::cpu.data       718568                       # Per-requestor read serviced memory accesses (Count)
system.mem_ctrl.requestorWriteAccesses::writebacks       356288                       # Per-requestor write serviced memory accesses (Count)
system.mem_ctrl.requestorReadTotalLat::cpu.inst   3739794806                       # Per-requestor read total memory access latency (Tick)
system.mem_ctrl.requestorReadTotalLat::cpu.data  19525571117                       # Per-requestor read total memory access latency (Tick)
system.mem_ctrl.requestorWriteTotalLat::writebacks 54343951563979                       # Per-requestor write total memory access latency (Tick)
system.mem_ctrl.requestorReadAvgLat::cpu.inst     31087.76                       # Per-requestor read average memory access latency ((Tick/Count))
system.mem_ctrl.requestorReadAvgLat::cpu.data     27172.89                       # Per-requestor read average memory access latency ((Tick/Count))
system.mem_ctrl.requestorWriteAvgLat::writebacks 152528155.77                       # Per-requestor write average memory access latency ((Tick/Count))
system.mem_ctrl.dram.bytesRead::cpu.inst      7699072                       # Number of bytes read from this memory (Byte)
system.mem_ctrl.dram.bytesRead::cpu.data     45988352                       # Number of bytes read from this memory (Byte)
system.mem_ctrl.dram.bytesRead::total        53687424                       # Number of bytes read from this memory (Byte)
system.mem_ctrl.dram.bytesInstRead::cpu.inst      7699072                       # Number of instructions bytes read from this memory (Byte)
system.mem_ctrl.dram.bytesInstRead::total      7699072                       # Number of instructions bytes read from this memory (Byte)
system.mem_ctrl.dram.bytesWritten::writebacks     22802432                       # Number of bytes written to this memory (Byte)
system.mem_ctrl.dram.bytesWritten::total     22802432                       # Number of bytes written to this memory (Byte)
system.mem_ctrl.dram.numReads::cpu.inst        120298                       # Number of read requests responded to by this memory (Count)
system.mem_ctrl.dram.numReads::cpu.data        718568                       # Number of read requests responded to by this memory (Count)
system.mem_ctrl.dram.numReads::total           838866                       # Number of read requests responded to by this memory (Count)
system.mem_ctrl.dram.numWrites::writebacks       356288                       # Number of write requests responded to by this memory (Count)
system.mem_ctrl.dram.numWrites::total          356288                       # Number of write requests responded to by this memory (Count)
system.mem_ctrl.dram.bwRead::cpu.inst         3361386                       # Total read bandwidth from this memory ((Byte/Second))
system.mem_ctrl.dram.bwRead::cpu.data        20078340                       # Total read bandwidth from this memory ((Byte/Second))
system.mem_ctrl.dram.bwRead::total           23439726                       # Total read bandwidth from this memory ((Byte/Second))
system.mem_ctrl.dram.bwInstRead::cpu.inst      3361386                       # Instruction read bandwidth from this memory ((Byte/Second))
system.mem_ctrl.dram.bwInstRead::total        3361386                       # Instruction read bandwidth from this memory ((Byte/Second))
system.mem_ctrl.dram.bwWrite::writebacks      9955455                       # Write bandwidth from this memory ((Byte/Second))
system.mem_ctrl.dram.bwWrite::total           9955455                       # Write bandwidth from this memory ((Byte/Second))
system.mem_ctrl.dram.bwTotal::writebacks      9955455                       # Total bandwidth to/from this memory ((Byte/Second))
system.mem_ctrl.dram.bwTotal::cpu.inst        3361386                       # Total bandwidth to/from this memory ((Byte/Second))
system.mem_ctrl.dram.bwTotal::cpu.data       20078340                       # Total bandwidth to/from this memory ((Byte/Second))
system.mem_ctrl.dram.bwTotal::total          33395181                       # Total bandwidth to/from this memory ((Byte/Second))
system.mem_ctrl.dram.readBursts                690813                       # Number of DRAM read bursts (Count)
system.mem_ctrl.dram.writeBursts               257113                       # Number of DRAM write bursts (Count)
system.mem_ctrl.dram.perBankRdBursts::0         46290                       # Per bank write bursts (Count)
system.mem_ctrl.dram.perBankRdBursts::1         37714                       # Per bank write bursts (Count)
system.mem_ctrl.dram.perBankRdBursts::2         41258                       # Per bank write bursts (Count)
system.mem_ctrl.dram.perBankRdBursts::3         32759                       # Per bank write bursts (Count)
system.mem_ctrl.dram.perBankRdBursts::4         35516                       # Per bank write bursts (Count)
system.mem_ctrl.dram.perBankRdBursts::5         66421                       # Per bank write bursts (Count)
system.mem_ctrl.dram.perBankRdBursts::6         34928                       # Per bank write bursts (Count)
system.mem_ctrl.dram.perBankRdBursts::7         77747                       # Per bank write bursts (Count)
system.mem_ctrl.dram.perBankRdBursts::8         45342                       # Per bank write bursts (Count)
system.mem_ctrl.dram.perBankRdBursts::9         35266                       # Per bank write bursts (Count)
system.mem_ctrl.dram.perBankRdBursts::10        31735                       # Per bank write bursts (Count)
system.mem_ctrl.dram.perBankRdBursts::11        32345                       # Per bank write bursts (Count)
system.mem_ctrl.dram.perBankRdBursts::12        35014                       # Per bank write bursts (Count)
system.mem_ctrl.dram.perBankRdBursts::13        45411                       # Per bank write bursts (Count)
system.mem_ctrl.dram.perBankRdBursts::14        48547                       # Per bank write bursts (Count)
system.mem_ctrl.dram.perBankRdBursts::15        44520                       # Per bank write bursts (Count)
system.mem_ctrl.dram.perBankWrBursts::0          6566                       # Per bank write bursts (Count)
system.mem_ctrl.dram.perBankWrBursts::1         16491                       # Per bank write bursts (Count)
system.mem_ctrl.dram.perBankWrBursts::2         13735                       # Per bank write bursts (Count)
system.mem_ctrl.dram.perBankWrBursts::3         17326                       # Per bank write bursts (Count)
system.mem_ctrl.dram.perBankWrBursts::4         18676                       # Per bank write bursts (Count)
system.mem_ctrl.dram.perBankWrBursts::5         17935                       # Per bank write bursts (Count)
system.mem_ctrl.dram.perBankWrBursts::6         16728                       # Per bank write bursts (Count)
system.mem_ctrl.dram.perBankWrBursts::7         53822                       # Per bank write bursts (Count)
system.mem_ctrl.dram.perBankWrBursts::8         15320                       # Per bank write bursts (Count)
system.mem_ctrl.dram.perBankWrBursts::9          9615                       # Per bank write bursts (Count)
system.mem_ctrl.dram.perBankWrBursts::10        10162                       # Per bank write bursts (Count)
system.mem_ctrl.dram.perBankWrBursts::11        11150                       # Per bank write bursts (Count)
system.mem_ctrl.dram.perBankWrBursts::12        14197                       # Per bank write bursts (Count)
system.mem_ctrl.dram.perBankWrBursts::13        11969                       # Per bank write bursts (Count)
system.mem_ctrl.dram.perBankWrBursts::14        11577                       # Per bank write bursts (Count)
system.mem_ctrl.dram.perBankWrBursts::15        11844                       # Per bank write bursts (Count)
system.mem_ctrl.dram.totQLat              10312622173                       # Total ticks spent queuing (Tick)
system.mem_ctrl.dram.totBusLat             3454065000                       # Total ticks spent in databus transfers (Tick)
system.mem_ctrl.dram.totMemAccLat         23265365923                       # Total ticks spent from burst creation until serviced by the DRAM (Tick)
system.mem_ctrl.dram.avgQLat                 14928.24                       # Average queueing delay per DRAM burst ((Tick/Count))
system.mem_ctrl.dram.avgBusLat                5000.00                       # Average bus latency per DRAM burst ((Tick/Count))
system.mem_ctrl.dram.avgMemAccLat            33678.24                       # Average memory access latency per DRAM burst ((Tick/Count))
system.mem_ctrl.dram.readRowHits               273031                       # Number of row buffer hits during reads (Count)
system.mem_ctrl.dram.writeRowHits              219493                       # Number of row buffer hits during writes (Count)
system.mem_ctrl.dram.readRowHitRate             39.52                       # Row buffer hit rate for reads (Ratio)
system.mem_ctrl.dram.writeRowHitRate            85.37                       # Row buffer hit rate for writes (Ratio)
system.mem_ctrl.dram.bytesPerActivate::samples       455395                       # Bytes accessed per row activation (Byte)
system.mem_ctrl.dram.bytesPerActivate::mean   133.218011                       # Bytes accessed per row activation (Byte)
system.mem_ctrl.dram.bytesPerActivate::gmean    97.165362                       # Bytes accessed per row activation (Byte)
system.mem_ctrl.dram.bytesPerActivate::stdev   156.929681                       # Bytes accessed per row activation (Byte)
system.mem_ctrl.dram.bytesPerActivate::0-127       298069     65.45%     65.45% # Bytes accessed per row activation (Byte)
system.mem_ctrl.dram.bytesPerActivate::128-255        94185     20.68%     86.13% # Bytes accessed per row activation (Byte)
[...]
system.mem_ctrl.dram.bwRead::cpu.data        21280380                       # Total read bandwidth from this memory ((Byte/Second))
system.mem_ctrl.dram.bwRead::total           95921173                       # Total read bandwidth from this memory ((Byte/Second))
system.mem_ctrl.dram.bwInstRead::cpu.inst     74640793                       # Instruction read bandwidth from this memory ((Byte/Second))
system.mem_ctrl.dram.bwInstRead::total       74640793                       # Instruction read bandwidth from this memory ((Byte/Second))
system.mem_ctrl.dram.bwWrite::writebacks      6285560                       # Write bandwidth from this memory ((Byte/Second))
system.mem_ctrl.dram.bwWrite::total           6285560                       # Write bandwidth from this memory ((Byte/Second))
system.mem_ctrl.dram.bwTotal::writebacks      6285560                       # Total bandwidth to/from this memory ((Byte/Second))
system.mem_ctrl.dram.bwTotal::cpu.inst       74640793                       # Total bandwidth to/from this memory ((Byte/Second))
system.mem_ctrl.dram.bwTotal::cpu.data       21280380                       # Total bandwidth to/from this memory ((Byte/Second))
system.mem_ctrl.dram.bwTotal::total         102206733                       # Total bandwidth to/from this memory ((Byte/Second))
system.mem_ctrl.dram.readBursts                890447                       # Number of DRAM read bursts (Count)
system.mem_ctrl.dram.writeBursts                26434                       # Number of DRAM write bursts (Count)
system.mem_ctrl.dram.perBankRdBursts::0          4628                       # Per bank write bursts (Count)
system.mem_ctrl.dram.perBankRdBursts::1          4556                       # Per bank write bursts (Count)
system.mem_ctrl.dram.perBankRdBursts::2         15479                       # Per bank write bursts (Count)
system.mem_ctrl.dram.perBankRdBursts::3        163981                       # Per bank write bursts (Count)
system.mem_ctrl.dram.perBankRdBursts::4         22226                       # Per bank write bursts (Count)
system.mem_ctrl.dram.perBankRdBursts::5         49578                       # Per bank write bursts (Count)
system.mem_ctrl.dram.perBankRdBursts::6          4736                       # Per bank write bursts (Count)
system.mem_ctrl.dram.perBankRdBursts::7         13491                       # Per bank write bursts (Count)
system.mem_ctrl.dram.perBankRdBursts::8         20401                       # Per bank write bursts (Count)
system.mem_ctrl.dram.perBankRdBursts::9         79305                       # Per bank write bursts (Count)
system.mem_ctrl.dram.perBankRdBursts::10       284321                       # Per bank write bursts (Count)
system.mem_ctrl.dram.perBankRdBursts::11         8716                       # Per bank write bursts (Count)
system.mem_ctrl.dram.perBankRdBursts::12       104335                       # Per bank write bursts (Count)
system.mem_ctrl.dram.perBankRdBursts::13        70960                       # Per bank write bursts (Count)
system.mem_ctrl.dram.perBankRdBursts::14        38859                       # Per bank write bursts (Count)
system.mem_ctrl.dram.perBankRdBursts::15         4875                       # Per bank write bursts (Count)
system.mem_ctrl.dram.perBankWrBursts::0          1183                       # Per bank write bursts (Count)
system.mem_ctrl.dram.perBankWrBursts::1          1065                       # Per bank write bursts (Count)
system.mem_ctrl.dram.perBankWrBursts::2          1119                       # Per bank write bursts (Count)
system.mem_ctrl.dram.perBankWrBursts::3           937                       # Per bank write bursts (Count)
system.mem_ctrl.dram.perBankWrBursts::4           923                       # Per bank write bursts (Count)
system.mem_ctrl.dram.perBankWrBursts::5          1667                       # Per bank write bursts (Count)
system.mem_ctrl.dram.perBankWrBursts::6          1186                       # Per bank write bursts (Count)
system.mem_ctrl.dram.perBankWrBursts::7          6410                       # Per bank write bursts (Count)
system.mem_ctrl.dram.perBankWrBursts::8          1332                       # Per bank write bursts (Count)
system.mem_ctrl.dram.perBankWrBursts::9          1320                       # Per bank write bursts (Count)
system.mem_ctrl.dram.perBankWrBursts::10         1636                       # Per bank write bursts (Count)
system.mem_ctrl.dram.perBankWrBursts::11         1347                       # Per bank write bursts (Count)
system.mem_ctrl.dram.perBankWrBursts::12         2493                       # Per bank write bursts (Count)
system.mem_ctrl.dram.perBankWrBursts::13         1329                       # Per bank write bursts (Count)
system.mem_ctrl.dram.perBankWrBursts::14         1304                       # Per bank write bursts (Count)
system.mem_ctrl.dram.perBankWrBursts::15         1183                       # Per bank write bursts (Count)
system.mem_ctrl.dram.totQLat              10433894806                       # Total ticks spent queuing (Tick)
system.mem_ctrl.dram.totBusLat             4452235000                       # Total ticks spent in databus transfers (Tick)
system.mem_ctrl.dram.totMemAccLat         27129776056                       # Total ticks spent from burst creation until serviced by the DRAM (Tick)
system.mem_ctrl.dram.avgQLat                 11717.59                       # Average queueing delay per DRAM burst ((Tick/Count))
system.mem_ctrl.dram.avgBusLat                5000.00                       # Average bus latency per DRAM burst ((Tick/Count))
system.mem_ctrl.dram.avgMemAccLat            30467.59                       # Average memory access latency per DRAM burst ((Tick/Count))
system.mem_ctrl.dram.readRowHits               510872                       # Number of row buffer hits during reads (Count)
system.mem_ctrl.dram.writeRowHits               23489                       # Number of row buffer hits during writes (Count)
system.mem_ctrl.dram.readRowHitRate             57.37                       # Row buffer hit rate for reads (Ratio)
system.mem_ctrl.dram.writeRowHitRate            88.86                       # Row buffer hit rate for writes (Ratio)
system.mem_ctrl.dram.bytesPerActivate::samples       382524                       # Bytes accessed per row activation (Byte)
system.mem_ctrl.dram.bytesPerActivate::mean   153.404482                       # Bytes accessed per row activation (Byte)
system.mem_ctrl.dram.bytesPerActivate::gmean   119.355310                       # Bytes accessed per row activation (Byte)
system.mem_ctrl.dram.bytesPerActivate::stdev   125.171595                       # Bytes accessed per row activation (Byte)
system.mem_ctrl.dram.bytesPerActivate::0-127       182314     47.66%     47.66% # Bytes accessed per row activation (Byte)
system.mem_ctrl.dram.bytesPerActivate::128-255       121907     31.87%     79.53% # Bytes accessed per row activation (Byte)
system.mem_ctrl.dram.bytesPerActivate::256-383        46263     12.09%     91.62% # Bytes accessed per row activation (Byte)
system.mem_ctrl.dram.bytesPerActivate::384-511        19553      5.11%     96.74% # Bytes accessed per row activation (Byte)
system.mem_ctrl.dram.bytesPerActivate::512-639        10624      2.78%     99.51% # Bytes accessed per row activation (Byte)
system.mem_ctrl.dram.bytesPerActivate::640-767          457      0.12%     99.63% # Bytes accessed per row activation (Byte)
system.mem_ctrl.dram.bytesPerActivate::768-895          241      0.06%     99.70% # Bytes accessed per row activation (Byte)
system.mem_ctrl.dram.bytesPerActivate::896-1023          224      0.06%     99.75% # Bytes accessed per row activation (Byte)
system.mem_ctrl.dram.bytesPerActivate::1024-1151          941      0.25%    100.00% # Bytes accessed per row activation (Byte)
system.mem_ctrl.dram.bytesPerActivate::total       382524                       # Bytes accessed per row activation (Byte)
system.mem_ctrl.dram.dramBytesRead           56988608                       # Total bytes read (Byte)
system.mem_ctrl.dram.dramBytesWritten         1691776                       # Total bytes written (Byte)
system.mem_ctrl.dram.avgRdBW                91.432646                       # Average DRAM read bandwidth in MiBytes/s ((Byte/Second))
system.mem_ctrl.dram.avgWrBW                 2.714289                       # Average DRAM write bandwidth in MiBytes/s ((Byte/Second))
system.mem_ctrl.dram.peakBW                  12800.00                       # Theoretical peak bandwidth in MiByte/s ((Byte/Second))
system.mem_ctrl.dram.busUtil                     0.74                       # Data bus utilization in percentage (Ratio)
system.mem_ctrl.dram.busUtilRead                 0.71                       # Data bus utilization in percentage for reads (Ratio)
system.mem_ctrl.dram.busUtilWrite                0.02                       # Data bus utilization in percentage for writes (Ratio)
system.mem_ctrl.dram.pageHitRate                58.28                       # Row buffer hit rate, read and write combined (Ratio)
system.mem_ctrl.dram.power_state.pwrStateResidencyTicks::UNDEFINED 623285124149                       # Cumulative time (in ticks) in various power states (Tick)
system.mem_ctrl.dram.rank0.actEnergy       1216684560                       # Energy for activate commands per rank (pJ) (Joule)
system.mem_ctrl.dram.rank0.preEnergy        646694565                       # Energy for precharge commands per rank (pJ) (Joule)
system.mem_ctrl.dram.rank0.readEnergy      1989739500                       # Energy for read commands per rank (pJ) (Joule)
system.mem_ctrl.dram.rank0.writeEnergy       75637800                       # Energy for write commands per rank (pJ) (Joule)
system.mem_ctrl.dram.rank0.refreshEnergy 49201932000.000008                       # Energy for refresh commands per rank (pJ) (Joule)
system.mem_ctrl.dram.rank0.actBackEnergy 162369425370                       # Energy for active background per rank (pJ) (Joule)
system.mem_ctrl.dram.rank0.preBackEnergy 102609340320                       # Energy for precharge background per rank (pJ) (Joule)
system.mem_ctrl.dram.rank0.actPowerDownEnergy            0                       # Energy for active power-down per rank (pJ) (Joule)
system.mem_ctrl.dram.rank0.prePowerDownEnergy            0                       # Energy for precharge power-down per rank (pJ) (Joule)
system.mem_ctrl.dram.rank0.selfRefreshEnergy            0                       # Energy for self refresh per rank (pJ) (Joule)
system.mem_ctrl.dram.rank0.totalEnergy   318109454115                       # Total energy per rank (pJ) (Joule)
system.mem_ctrl.dram.rank0.averagePower    510.375496                       # Core power per rank (mW) (Watt)
system.mem_ctrl.dram.rank0.totalIdleTime            0                       # Total Idle time Per DRAM Rank (Tick)
system.mem_ctrl.dram.rank0.pwrStateTime::IDLE 264984131222                       # Time in different power states (Tick)
system.mem_ctrl.dram.rank0.pwrStateTime::REF  20813000000                       # Time in different power states (Tick)
system.mem_ctrl.dram.rank0.pwrStateTime::SREF            0                       # Time in different power states (Tick)
system.mem_ctrl.dram.rank0.pwrStateTime::PRE_PDN            0                       # Time in different power states (Tick)
system.mem_ctrl.dram.rank0.pwrStateTime::ACT 337487992927                       # Time in different power states (Tick)
system.mem_ctrl.dram.rank0.pwrStateTime::ACT_PDN            0                       # Time in different power states (Tick)
system.mem_ctrl.dram.rank1.actEnergy       1514508240                       # Energy for activate commands per rank (pJ) (Joule)
system.mem_ctrl.dram.rank1.preEnergy        804984015                       # Energy for precharge commands per rank (pJ) (Joule)
system.mem_ctrl.dram.rank1.readEnergy      4368052080                       # Energy for read commands per rank (pJ) (Joule)
system.mem_ctrl.dram.rank1.writeEnergy       62347680                       # Energy for write commands per rank (pJ) (Joule)
system.mem_ctrl.dram.rank1.refreshEnergy 49201932000.000008                       # Energy for refresh commands per rank (pJ) (Joule)
system.mem_ctrl.dram.rank1.actBackEnergy 222319087020                       # Energy for active background per rank (pJ) (Joule)
system.mem_ctrl.dram.rank1.preBackEnergy  52125414720                       # Energy for precharge background per rank (pJ) (Joule)
system.mem_ctrl.dram.rank1.actPowerDownEnergy            0                       # Energy for active power-down per rank (pJ) (Joule)
system.mem_ctrl.dram.rank1.prePowerDownEnergy            0                       # Energy for precharge power-down per rank (pJ) (Joule)
system.mem_ctrl.dram.rank1.selfRefreshEnergy            0                       # Energy for self refresh per rank (pJ) (Joule)
system.mem_ctrl.dram.rank1.totalEnergy   330396325755                       # Total energy per rank (pJ) (Joule)
system.mem_ctrl.dram.rank1.averagePower    530.088579                       # Core power per rank (mW) (Watt)
system.mem_ctrl.dram.rank1.totalIdleTime            0                       # Total Idle time Per DRAM Rank (Tick)
system.mem_ctrl.dram.rank1.pwrStateTime::IDLE 133601269265                       # Time in different power states (Tick)
system.mem_ctrl.dram.rank1.pwrStateTime::REF  20813000000                       # Time in different power states (Tick)
system.mem_ctrl.dram.rank1.pwrStateTime::SREF            0                       # Time in different power states (Tick)
system.mem_ctrl.dram.rank1.pwrStateTime::PRE_PDN            0                       # Time in different power states (Tick)
system.mem_ctrl.dram.rank1.pwrStateTime::ACT 468870854884                       # Time in different power states (Tick)
system.mem_ctrl.dram.rank1.pwrStateTime::ACT_PDN            0                       # Time in different power states (Tick)
system.mem_ctrl.power_state.pwrStateResidencyTicks::UNDEFINED 623285124149                       # Cumulative time (in ticks) in various power states (Tick)
system.membus.transDist::ReadResp              879108                       # Transaction distribution (Count)
system.membus.transDist::WritebackDirty         61214                       # Transaction distribution (Count)
system.membus.transDist::CleanEvict            872946                       # Transaction distribution (Count)
system.membus.transDist::ReadExReq              55052                       # Transaction distribution (Count)
system.membus.transDist::ReadExResp             55052                       # Transaction distribution (Count)
system.membus.transDist::ReadSharedReq         879108                       # Transaction distribution (Count)
system.membus.pktCount_system.cpu.l1d.mem_side_port::system.mem_ctrl.port       621738                       # Packet count per connected requestor and responder (Count)
system.membus.pktCount_system.cpu.l1d.mem_side_port::total       621738                       # Packet count per connected requestor and responder (Count)
system.membus.pktCount_system.cpu.l1i.mem_side_port::system.mem_ctrl.port      2180742                       # Packet count per connected requestor and responder (Count)
system.membus.pktCount_system.cpu.l1i.mem_side_port::total      2180742                       # Packet count per connected requestor and responder (Count)
system.membus.pktCount::total                 2802480                       # Packet count per connected requestor and responder (Count)
system.membus.pktSize_system.cpu.l1d.mem_side_port::system.mem_ctrl.port     17181440                       # Cumulative packet size per connected requestor and responder (Byte)
system.membus.pktSize_system.cpu.l1d.mem_side_port::total     17181440                       # Cumulative packet size per connected requestor and responder (Byte)
system.membus.pktSize_system.cpu.l1i.mem_side_port::system.mem_ctrl.port     46522496                       # Cumulative packet size per connected requestor and responder (Byte)
system.membus.pktSize_system.cpu.l1i.mem_side_port::total     46522496                       # Cumulative packet size per connected requestor and responder (Byte)
system.membus.pktSize::total                 63703936                       # Cumulative packet size per connected requestor and responder (Byte)
system.membus.snoops                                0                       # Total snoops (Count)
system.membus.snoopTraffic                          0                       # Total snoop traffic (Byte)
system.membus.snoopFanout::samples             934160                       # Request fanout histogram (Count)
system.membus.snoopFanout::mean                     0                       # Request fanout histogram (Count)
system.membus.snoopFanout::stdev                    0                       # Request fanout histogram (Count)
system.membus.snoopFanout::underflows               0      0.00%      0.00% # Request fanout histogram (Count)
system.membus.snoopFanout::0                   934160    100.00%    100.00% # Request fanout histogram (Count)
system.membus.snoopFanout::1                        0      0.00%    100.00% # Request fanout histogram (Count)
system.membus.snoopFanout::2                        0      0.00%    100.00% # Request fanout histogram (Count)
system.membus.snoopFanout::overflows                0      0.00%    100.00% # Request fanout histogram (Count)
system.membus.snoopFanout::min_value                0                       # Request fanout histogram (Count)
system.membus.snoopFanout::max_value                0                       # Request fanout histogram (Count)
system.membus.snoopFanout::total               934160                       # Request fanout histogram (Count)
system.membus.power_state.pwrStateResidencyTicks::UNDEFINED 623285124149                       # Cumulative time (in ticks) in various power states (Tick)
system.membus.reqLayer2.occupancy         28174975608                       # Layer occupancy (ticks) (Tick)
system.membus.reqLayer2.utilization               0.0                       # Layer utilization (Ratio)
system.membus.respLayer2.occupancy        14140815537                       # Layer occupancy (ticks) (Tick)
system.membus.respLayer2.utilization              0.0                       # Layer utilization (Ratio)
system.membus.respLayer3.occupancy        49407606484                       # Layer occupancy (ticks) (Tick)
system.membus.respLayer3.utilization              0.1                       # Layer utilization (Ratio)
system.membus.snoop_filter.totRequests        1868320                       # Total number of requests made to the snoop filter. (Count)
system.membus.snoop_filter.hitSingleRequests       934160                       # Number of requests hitting in the snoop filter with a single holder of the requested data. (Count)
system.membus.snoop_filter.hitMultiRequests            0                       # Number of requests hitting in the snoop filter with multiple (>1) holders of the requested data. (Count)
system.membus.snoop_filter.totSnoops                0                       # Total number of snoops made to the snoop filter. (Count)
system.membus.snoop_filter.hitSingleSnoops            0                       # Number of snoops hitting in the snoop filter with a single holder of the requested data. (Count)
system.membus.snoop_filter.hitMultiSnoops            0                       # Number of snoops hitting in the snoop filter with multiple (>1) holders of the requested data. (Count)
system.workload.inst.arm                            0                       # number of arm instructions executed (Count)
system.workload.inst.quiesce                        0                       # number of quiesce instructions executed (Count)

---------- End Simulation Statistics   ----------
