
---------- Begin Simulation Statistics ----------
simSeconds                                   2.173243                       # Number of seconds simulated (Second)
simTicks                                 2173242547578                       # Number of ticks simulated (Tick)
finalTick                                2173242547578                       # Number of ticks from beginning of simulation (restored from checkpoints and never reset) (Tick)
simFreq                                  1000000000000                       # The number of ticks per simulated second ((Tick/Second))
hostSeconds                                    105.04                       # Real time elapsed on the host (Second)
hostTickRate                              20689388768                       # The number of ticks simulated per host second (ticks/s) ((Tick/Second))
hostMemory                                    8655096                       # Number of bytes of host memory used (Byte)
simInsts                                     96343722                       # Number of instructions simulated (Count)
simOps                                      159808060                       # Number of ops (including micro ops) simulated (Count)
hostInstRate                                   917196                       # Simulator instruction rate (inst/s) ((Count/Second))
hostOpRate                                    1521379                       # Simulator op (including micro ops) rate (op/s) ((Count/Second))
system.clk_domain.clock                         13333                       # Clock period in ticks (Tick)
system.clk_domain.voltage_domain.voltage            1                       # Voltage in Volts (Volt)
system.cpu.numCycles                        162997266                       # Number of cpu cycles simulated (Cycle)
system.cpu.cpi                               1.691812                       # CPI: cycles per instruction (core level) ((Cycle/Count))
system.cpu.ipc                               0.591082                       # IPC: instructions per cycle (core level) ((Count/Cycle))
system.cpu.numWorkItemsStarted                      0                       # Number of work items this cpu started (Count)
system.cpu.numWorkItemsCompleted                    0                       # Number of work items this cpu completed (Count)
system.cpu.commitStats0.numInsts             96344782                       # Number of instructions committed (thread level) (Count)
system.cpu.commitStats0.numOps              159809310                       # Number of ops (including micro ops) committed (thread level) (Count)
system.cpu.commitStats0.numInstsNotNOP              0                       # Number of instructions committed excluding NOPs or prefetches (Count)
system.cpu.commitStats0.numOpsNotNOP                0                       # Number of Ops (including micro ops) Simulated (Count)
system.cpu.commitStats0.cpi                  1.691812                       # CPI: cycles per instruction (thread level) ((Cycle/Count))
system.cpu.commitStats0.ipc                  0.591082                       # IPC: instructions per cycle (thread level) ((Count/Cycle))
system.cpu.commitStats0.numMemRefs                  0                       # Number of memory references committed (Count)
system.cpu.commitStats0.numFpInsts            1564632                       # Number of float instructions (Count)
system.cpu.commitStats0.numIntInsts         156700682                       # Number of integer instructions (Count)
system.cpu.commitStats0.numLoadInsts         19991312                       # Number of load instructions (Count)
system.cpu.commitStats0.numStoreInsts         9268021                       # Number of store instructions (Count)
system.cpu.commitStats0.numVecInsts                 0                       # Number of vector instructions (Count)
system.cpu.commitStats0.committedInstType::No_OpClass      2350656      1.47%      1.47% # Class of committed instruction. (Count)
system.cpu.commitStats0.committedInstType::IntAlu    127621283     79.86%     81.33% # Class of committed instruction. (Count)
system.cpu.commitStats0.committedInstType::IntMult        52782      0.03%     81.36% # Class of committed instruction. (Count)
system.cpu.commitStats0.committedInstType::IntDiv        40452      0.03%     81.39% # Class of committed instruction. (Count)
system.cpu.commitStats0.committedInstType::FloatAdd        10560      0.01%     81.39% # Class of committed instruction. (Count)
system.cpu.commitStats0.committedInstType::FloatCmp            0      0.00%     81.39% # Class of committed instruction. (Count)
system.cpu.commitStats0.committedInstType::FloatCvt         1456      0.00%     81.40% # Class of committed instruction. (Count)
system.cpu.commitStats0.committedInstType::FloatMult            0      0.00%     81.40% # Class of committed instruction. (Count)
system.cpu.commitStats0.committedInstType::FloatMultAcc            0      0.00%     81.40% # Class of committed instruction. (Count)
system.cpu.commitStats0.committedInstType::FloatDiv            0      0.00%     81.40% # Class of committed instruction. (Count)
system.cpu.commitStats0.committedInstType::FloatMisc            0      0.00%     81.40% # Class of committed instruction. (Count)
system.cpu.commitStats0.committedInstType::FloatSqrt            0      0.00%     81.40% # Class of committed instruction. (Count)
system.cpu.commitStats0.committedInstType::SimdAdd         6892      0.00%     81.40% # Class of committed instruction. (Count)
system.cpu.commitStats0.committedInstType::SimdAddAcc            0      0.00%     81.40% # Class of committed instruction. (Count)
system.cpu.commitStats0.committedInstType::SimdAlu        79359      0.05%     81.45% # Class of committed instruction. (Count)
system.cpu.commitStats0.committedInstType::SimdCmp            6      0.00%     81.45% # Class of committed instruction. (Count)
system.cpu.commitStats0.committedInstType::SimdCvt        19016      0.01%     81.46% # Class of committed instruction. (Count)
system.cpu.commitStats0.committedInstType::SimdMisc       364476      0.23%     81.69% # Class of committed instruction. (Count)
system.cpu.commitStats0.committedInstType::SimdMult            0      0.00%     81.69% # Class of committed instruction. (Count)
system.cpu.commitStats0.committedInstType::SimdMultAcc            0      0.00%     81.69% # Class of committed instruction. (Count)
system.cpu.commitStats0.committedInstType::SimdMatMultAcc            0      0.00%     81.69% # Class of committed instruction. (Count)
system.cpu.commitStats0.committedInstType::SimdShift         1859      0.00%     81.69% # Class of committed instruction. (Count)
system.cpu.commitStats0.committedInstType::SimdShiftAcc            0      0.00%     81.69% # Class of committed instruction. (Count)
system.cpu.commitStats0.committedInstType::SimdDiv            0      0.00%     81.69% # Class of committed instruction. (Count)
system.cpu.commitStats0.committedInstType::SimdSqrt            0      0.00%     81.69% # Class of committed instruction. (Count)
system.cpu.commitStats0.committedInstType::SimdFloatAdd          253      0.00%     81.69% # Class of committed instruction. (Count)
system.cpu.commitStats0.committedInstType::SimdFloatAlu            0      0.00%     81.69% # Class of committed instruction. (Count)
system.cpu.commitStats0.committedInstType::SimdFloatCmp            0      0.00%     81.69% # Class of committed instruction. (Count)
system.cpu.commitStats0.committedInstType::SimdFloatCvt          674      0.00%     81.69% # Class of committed instruction. (Count)
system.cpu.commitStats0.committedInstType::SimdFloatDiv          253      0.00%     81.69% # Class of committed instruction. (Count)
system.cpu.commitStats0.committedInstType::SimdFloatMisc            0      0.00%     81.69% # Class of committed instruction. (Count)
system.cpu.commitStats0.committedInstType::SimdFloatMult            0      0.00%     81.69% # Class of committed instruction. (Count)
system.cpu.commitStats0.committedInstType::SimdFloatMultAcc            0      0.00%     81.69% # Class of committed instruction. (Count)
system.cpu.commitStats0.committedInstType::SimdFloatMatMultAcc            0      0.00%     81.69% # Class of committed instruction. (Count)
system.cpu.commitStats0.committedInstType::SimdFloatSqrt            0      0.00%     81.69% # Class of committed instruction. (Count)
system.cpu.commitStats0.committedInstType::SimdReduceAdd            0      0.00%     81.69% # Class of committed instruction. (Count)
system.cpu.commitStats0.committedInstType::SimdReduceAlu            0      0.00%     81.69% # Class of committed instruction. (Count)
system.cpu.commitStats0.committedInstType::SimdReduceCmp            0      0.00%     81.69% # Class of committed instruction. (Count)
system.cpu.commitStats0.committedInstType::SimdFloatReduceAdd            0      0.00%     81.69% # Class of committed instruction. (Count)
system.cpu.commitStats0.committedInstType::SimdFloatReduceCmp            0      0.00%     81.69% # Class of committed instruction. (Count)
system.cpu.commitStats0.committedInstType::SimdAes            0      0.00%     81.69% # Class of committed instruction. (Count)
system.cpu.commitStats0.committedInstType::SimdAesMix            0      0.00%     81.69% # Class of committed instruction. (Count)
system.cpu.commitStats0.committedInstType::SimdSha1Hash            0      0.00%     81.69% # Class of committed instruction. (Count)
system.cpu.commitStats0.committedInstType::SimdSha1Hash2            0      0.00%     81.69% # Class of committed instruction. (Count)
system.cpu.commitStats0.committedInstType::SimdSha256Hash            0      0.00%     81.69% # Class of committed instruction. (Count)
system.cpu.commitStats0.committedInstType::SimdSha256Hash2            0      0.00%     81.69% # Class of committed instruction. (Count)
system.cpu.commitStats0.committedInstType::SimdShaSigma2            0      0.00%     81.69% # Class of committed instruction. (Count)
system.cpu.commitStats0.committedInstType::SimdShaSigma3            0      0.00%     81.69% # Class of committed instruction. (Count)
system.cpu.commitStats0.committedInstType::SimdPredAlu            0      0.00%     81.69% # Class of committed instruction. (Count)
system.cpu.commitStats0.committedInstType::Matrix            0      0.00%     81.69% # Class of committed instruction. (Count)
system.cpu.commitStats0.committedInstType::MatrixMov            0      0.00%     81.69% # Class of committed instruction. (Count)
system.cpu.commitStats0.committedInstType::MatrixOP            0      0.00%     81.69% # Class of committed instruction. (Count)
system.cpu.commitStats0.committedInstType::MemRead     19605424     12.27%     93.96% # Class of committed instruction. (Count)
system.cpu.commitStats0.committedInstType::MemWrite      8835025      5.53%     99.49% # Class of committed instruction. (Count)
system.cpu.commitStats0.committedInstType::FloatMemRead       385888      0.24%     99.73% # Class of committed instruction. (Count)
system.cpu.commitStats0.committedInstType::FloatMemWrite       432996      0.27%    100.00% # Class of committed instruction. (Count)
system.cpu.commitStats0.committedInstType::IprAccess            0      0.00%    100.00% # Class of committed instruction. (Count)
system.cpu.commitStats0.committedInstType::InstPrefetch            0      0.00%    100.00% # Class of committed instruction. (Count)
system.cpu.commitStats0.committedInstType::SimdUnitStrideLoad            0      0.00%    100.00% # Class of committed instruction. (Count)
system.cpu.commitStats0.committedInstType::SimdUnitStrideStore            0      0.00%    100.00% # Class of committed instruction. (Count)
system.cpu.commitStats0.committedInstType::SimdUnitStrideMaskLoad            0      0.00%    100.00% # Class of committed instruction. (Count)
system.cpu.commitStats0.committedInstType::SimdUnitStrideMaskStore            0      0.00%    100.00% # Class of committed instruction. (Count)
system.cpu.commitStats0.committedInstType::SimdStridedLoad            0      0.00%    100.00% # Class of committed instruction. (Count)
system.cpu.commitStats0.committedInstType::SimdStridedStore            0      0.00%    100.00% # Class of committed instruction. (Count)
system.cpu.commitStats0.committedInstType::SimdIndexedLoad            0      0.00%    100.00% # Class of committed instruction. (Count)
system.cpu.commitStats0.committedInstType::SimdIndexedStore            0      0.00%    100.00% # Class of committed instruction. (Count)
system.cpu.commitStats0.committedInstType::SimdWholeRegisterLoad            0      0.00%    100.00% # Class of committed instruction. (Count)
system.cpu.commitStats0.committedInstType::SimdWholeRegisterStore            0      0.00%    100.00% # Class of committed instruction. (Count)
system.cpu.commitStats0.committedInstType::SimdUnitStrideFaultOnlyFirstLoad            0      0.00%    100.00% # Class of committed instruction. (Count)
system.cpu.commitStats0.committedInstType::SimdUnitStrideSegmentedLoad            0      0.00%    100.00% # Class of committed instruction. (Count)
system.cpu.commitStats0.committedInstType::SimdUnitStrideSegmentedStore            0      0.00%    100.00% # Class of committed instruction. (Count)
system.cpu.commitStats0.committedInstType::SimdExt            0      0.00%    100.00% # Class of committed instruction. (Count)
system.cpu.commitStats0.committedInstType::SimdFloatExt            0      0.00%    100.00% # Class of committed instruction. (Count)
system.cpu.commitStats0.committedInstType::SimdConfig            0      0.00%    100.00% # Class of committed instruction. (Count)
system.cpu.commitStats0.committedInstType::total    159809310                       # Class of committed instruction. (Count)
system.cpu.commitStats0.committedControl::IsControl     18084583                       # Class of control type instructions committed (Count)
system.cpu.commitStats0.committedControl::IsDirectControl     17802004                       # Class of control type instructions committed (Count)
system.cpu.commitStats0.committedControl::IsIndirectControl       282265                       # Class of control type instructions committed (Count)
system.cpu.commitStats0.committedControl::IsCondControl     16240253                       # Class of control type instructions committed (Count)
system.cpu.commitStats0.committedControl::IsUncondControl      1844016                       # Class of control type instructions committed (Count)
system.cpu.commitStats0.committedControl::IsCall       202328                       # Class of control type instructions committed (Count)
system.cpu.commitStats0.committedControl::IsReturn       202323                       # Class of control type instructions committed (Count)
system.cpu.exec_context.thread_0.numMatAluAccesses            0                       # Number of matrix alu accesses (Count)
system.cpu.exec_context.thread_0.numCallsReturns       404651                       # Number of times a function call or return occured (Count)
system.cpu.exec_context.thread_0.numMatInsts            0                       # Number of matrix instructions (Count)
system.cpu.exec_context.thread_0.numIdleCycles            0                       # Number of idle cycles (Cycle)
system.cpu.exec_context.thread_0.numBusyCycles    162997266                       # Number of busy cycles (Cycle)
system.cpu.exec_context.thread_0.notIdleFraction            1                       # Percentage of non-idle cycles (Ratio)
system.cpu.exec_context.thread_0.idleFraction            0                       # Percentage of idle cycles (Ratio)
system.cpu.executeStats0.numInsts                   0                       # Number of executed instructions (Count)
system.cpu.executeStats0.numNop                     0                       # Number of nop insts executed (Count)
system.cpu.executeStats0.numBranches                0                       # Number of branches executed (Count)
system.cpu.executeStats0.numLoadInsts               0                       # Number of load instructions executed (Count)
system.cpu.executeStats0.numStoreInsts       29259333                       # Number of stores executed (Count)
system.cpu.executeStats0.instRate                   0                       # Inst execution rate ((Count/Cycle))
system.cpu.executeStats0.numFpAluAccesses      1564632                       # Number of float alu accesses (Count)
system.cpu.executeStats0.numFpRegReads        2586344                       # Number of times the floating registers were read (Count)
system.cpu.executeStats0.numFpRegWrites       1117422                       # Number of times the floating registers were written (Count)
system.cpu.executeStats0.numIntAluAccesses    156700682                       # Number of integer alu accesses (Count)
system.cpu.executeStats0.numIntRegReads     201712019                       # Number of times the integer registers were read (Count)
system.cpu.executeStats0.numIntRegWrites    110169890                       # Number of times the integer registers were written (Count)
system.cpu.executeStats0.numMemRefs          29259333                       # Number of memory refs (Count)
system.cpu.executeStats0.numMiscRegReads     65226394                       # Number of times the Misc registers were read (Count)
system.cpu.executeStats0.numMiscRegWrites          819                       # Number of times the Misc registers were written (Count)
system.cpu.executeStats0.numVecAluAccesses            0                       # Number of vector alu accesses (Count)
system.cpu.executeStats0.numDiscardedOps            0                       # Number of ops (including micro ops) which were discarded before commit (Count)
system.cpu.fetchStats0.numInsts              96344782                       # Number of instructions fetched (thread level) (Count)
system.cpu.fetchStats0.numOps               159809310                       # Number of ops (including micro ops) fetched (thread level) (Count)
system.cpu.fetchStats0.fetchRate             0.591082                       # Number of inst fetches per cycle ((Count/Cycle))
system.cpu.fetchStats0.numBranches           18084583                       # Number of branches fetched (Count)
system.cpu.fetchStats0.branchRate            0.110950                       # Number of branch fetches per cycle (Ratio)
system.cpu.fetchStats0.numFetchSuspends             0                       # Number of times Execute suspended instruction fetching (Count)
system.cpu.interrupts.clk_domain.clock         213328                       # Clock period in ticks (Tick)
system.cpu.l1d.demandHits::cpu.data          28564544                       # number of demand (read+write) hits (Count)
system.cpu.l1d.demandHits::total             28564544                       # number of demand (read+write) hits (Count)
system.cpu.l1d.overallHits::cpu.data         28564544                       # number of overall hits (Count)
system.cpu.l1d.overallHits::total            28564544                       # number of overall hits (Count)
system.cpu.l1d.demandMisses::cpu.data          677746                       # number of demand (read+write) misses (Count)
system.cpu.l1d.demandMisses::total             677746                       # number of demand (read+write) misses (Count)
system.cpu.l1d.overallMisses::cpu.data         677746                       # number of overall misses (Count)
system.cpu.l1d.overallMisses::total            677746                       # number of overall misses (Count)
system.cpu.l1d.demandMissLatency::cpu.data 140801706536                       # number of demand (read+write) miss ticks (Tick)
system.cpu.l1d.demandMissLatency::total  140801706536                       # number of demand (read+write) miss ticks (Tick)
system.cpu.l1d.overallMissLatency::cpu.data 140801706536                       # number of overall miss ticks (Tick)
system.cpu.l1d.overallMissLatency::total 140801706536                       # number of overall miss ticks (Tick)
system.cpu.l1d.demandAccesses::cpu.data      29242290                       # number of demand (read+write) accesses (Count)
system.cpu.l1d.demandAccesses::total         29242290                       # number of demand (read+write) accesses (Count)
system.cpu.l1d.overallAccesses::cpu.data     29242290                       # number of overall (read+write) accesses (Count)
system.cpu.l1d.overallAccesses::total        29242290                       # number of overall (read+write) accesses (Count)
system.cpu.l1d.demandMissRate::cpu.data      0.023177                       # miss rate for demand accesses (Ratio)
system.cpu.l1d.demandMissRate::total         0.023177                       # miss rate for demand accesses (Ratio)
system.cpu.l1d.overallMissRate::cpu.data     0.023177                       # miss rate for overall accesses (Ratio)
system.cpu.l1d.overallMissRate::total        0.023177                       # miss rate for overall accesses (Ratio)
system.cpu.l1d.demandAvgMissLatency::cpu.data 207749.963166                       # average overall miss latency in ticks ((Tick/Count))
system.cpu.l1d.demandAvgMissLatency::total 207749.963166                       # average overall miss latency in ticks ((Tick/Count))
system.cpu.l1d.overallAvgMissLatency::cpu.data 207749.963166                       # average overall miss latency ((Tick/Count))
system.cpu.l1d.overallAvgMissLatency::total 207749.963166                       # average overall miss latency ((Tick/Count))
system.cpu.l1d.blockedCycles::no_mshrs              0                       # number of cycles access was blocked (Cycle)
system.cpu.l1d.blockedCycles::no_targets            0                       # number of cycles access was blocked (Cycle)
system.cpu.l1d.blockedCauses::no_mshrs              0                       # number of times access was blocked (Count)
system.cpu.l1d.blockedCauses::no_targets            0                       # number of times access was blocked (Count)
system.cpu.l1d.avgBlocked::no_mshrs               nan                       # average number of cycles each access was blocked ((Cycle/Count))
system.cpu.l1d.avgBlocked::no_targets             nan                       # average number of cycles each access was blocked ((Cycle/Count))
system.cpu.l1d.writebacks::writebacks          300853                       # number of writebacks (Count)
system.cpu.l1d.writebacks::total               300853                       # number of writebacks (Count)
system.cpu.l1d.demandMshrMisses::cpu.data       677746                       # number of demand (read+write) MSHR misses (Count)
system.cpu.l1d.demandMshrMisses::total         677746                       # number of demand (read+write) MSHR misses (Count)
system.cpu.l1d.overallMshrMisses::cpu.data       677746                       # number of overall MSHR misses (Count)
system.cpu.l1d.overallMshrMisses::total        677746                       # number of overall MSHR misses (Count)
system.cpu.l1d.demandMshrMissLatency::cpu.data 131765319118                       # number of demand (read+write) MSHR miss ticks (Tick)
system.cpu.l1d.demandMshrMissLatency::total 131765319118                       # number of demand (read+write) MSHR miss ticks (Tick)
system.cpu.l1d.overallMshrMissLatency::cpu.data 131765319118                       # number of overall MSHR miss ticks (Tick)
system.cpu.l1d.overallMshrMissLatency::total 131765319118                       # number of overall MSHR miss ticks (Tick)
system.cpu.l1d.demandMshrMissRate::cpu.data     0.023177                       # mshr miss ratio for demand accesses (Ratio)
system.cpu.l1d.demandMshrMissRate::total     0.023177                       # mshr miss ratio for demand accesses (Ratio)
system.cpu.l1d.overallMshrMissRate::cpu.data     0.023177                       # mshr miss ratio for overall accesses (Ratio)
system.cpu.l1d.overallMshrMissRate::total     0.023177                       # mshr miss ratio for overall accesses (Ratio)
system.cpu.l1d.demandAvgMshrMissLatency::cpu.data 194416.963166                       # average overall mshr miss latency ((Tick/Count))
system.cpu.l1d.demandAvgMshrMissLatency::total 194416.963166                       # average overall mshr miss latency ((Tick/Count))
system.cpu.l1d.overallAvgMshrMissLatency::cpu.data 194416.963166                       # average overall mshr miss latency ((Tick/Count))
system.cpu.l1d.overallAvgMshrMissLatency::total 194416.963166                       # average overall mshr miss latency ((Tick/Count))
system.cpu.l1d.replacements                    677761                       # number of replacements (Count)
system.cpu.l1d.LockedRMWReadReq.hits::cpu.data         8653                       # number of LockedRMWReadReq hits (Count)
system.cpu.l1d.LockedRMWReadReq.hits::total         8653                       # number of LockedRMWReadReq hits (Count)
system.cpu.l1d.LockedRMWReadReq.misses::cpu.data           79                       # number of LockedRMWReadReq misses (Count)
system.cpu.l1d.LockedRMWReadReq.misses::total           79                       # number of LockedRMWReadReq misses (Count)
system.cpu.l1d.LockedRMWReadReq.missLatency::cpu.data     16426256                       # number of LockedRMWReadReq miss ticks (Tick)
system.cpu.l1d.LockedRMWReadReq.missLatency::total     16426256                       # number of LockedRMWReadReq miss ticks (Tick)
system.cpu.l1d.LockedRMWReadReq.accesses::cpu.data         8732                       # number of LockedRMWReadReq accesses(hits+misses) (Count)
system.cpu.l1d.LockedRMWReadReq.accesses::total         8732                       # number of LockedRMWReadReq accesses(hits+misses) (Count)
system.cpu.l1d.LockedRMWReadReq.missRate::cpu.data     0.009047                       # miss rate for LockedRMWReadReq accesses (Ratio)
system.cpu.l1d.LockedRMWReadReq.missRate::total     0.009047                       # miss rate for LockedRMWReadReq accesses (Ratio)
system.cpu.l1d.LockedRMWReadReq.avgMissLatency::cpu.data 207927.291139                       # average LockedRMWReadReq miss latency ((Tick/Count))
system.cpu.l1d.LockedRMWReadReq.avgMissLatency::total 207927.291139                       # average LockedRMWReadReq miss latency ((Tick/Count))
system.cpu.l1d.LockedRMWReadReq.mshrMisses::cpu.data           79                       # number of LockedRMWReadReq MSHR misses (Count)
system.cpu.l1d.LockedRMWReadReq.mshrMisses::total           79                       # number of LockedRMWReadReq MSHR misses (Count)
system.cpu.l1d.LockedRMWReadReq.mshrMissLatency::cpu.data    147169654                       # number of LockedRMWReadReq MSHR miss ticks (Tick)
system.cpu.l1d.LockedRMWReadReq.mshrMissLatency::total    147169654                       # number of LockedRMWReadReq MSHR miss ticks (Tick)
system.cpu.l1d.LockedRMWReadReq.mshrMissRate::cpu.data     0.009047                       # mshr miss rate for LockedRMWReadReq accesses (Ratio)
system.cpu.l1d.LockedRMWReadReq.mshrMissRate::total     0.009047                       # mshr miss rate for LockedRMWReadReq accesses (Ratio)
system.cpu.l1d.LockedRMWReadReq.avgMshrMissLatency::cpu.data 1862907.012658                       # average LockedRMWReadReq mshr miss latency ((Tick/Count))
system.cpu.l1d.LockedRMWReadReq.avgMshrMissLatency::total 1862907.012658                       # average LockedRMWReadReq mshr miss latency ((Tick/Count))
system.cpu.l1d.LockedRMWWriteReq.hits::cpu.data         8732                       # number of LockedRMWWriteReq hits (Count)
system.cpu.l1d.LockedRMWWriteReq.hits::total         8732                       # number of LockedRMWWriteReq hits (Count)
system.cpu.l1d.LockedRMWWriteReq.accesses::cpu.data         8732                       # number of LockedRMWWriteReq accesses(hits+misses) (Count)
system.cpu.l1d.LockedRMWWriteReq.accesses::total         8732                       # number of LockedRMWWriteReq accesses(hits+misses) (Count)
system.cpu.l1d.ReadReq.hits::cpu.data        19561715                       # number of ReadReq hits (Count)
system.cpu.l1d.ReadReq.hits::total           19561715                       # number of ReadReq hits (Count)
system.cpu.l1d.ReadReq.misses::cpu.data        420886                       # number of ReadReq misses (Count)
system.cpu.l1d.ReadReq.misses::total           420886                       # number of ReadReq misses (Count)
system.cpu.l1d.ReadReq.missLatency::cpu.data  88454361919                       # number of ReadReq miss ticks (Tick)
system.cpu.l1d.ReadReq.missLatency::total  88454361919                       # number of ReadReq miss ticks (Tick)
system.cpu.l1d.ReadReq.accesses::cpu.data     19982601                       # number of ReadReq accesses(hits+misses) (Count)
system.cpu.l1d.ReadReq.accesses::total       19982601                       # number of ReadReq accesses(hits+misses) (Count)
system.cpu.l1d.ReadReq.missRate::cpu.data     0.021063                       # miss rate for ReadReq accesses (Ratio)
system.cpu.l1d.ReadReq.missRate::total       0.021063                       # miss rate for ReadReq accesses (Ratio)
system.cpu.l1d.ReadReq.avgMissLatency::cpu.data 210162.281280                       # average ReadReq miss latency ((Tick/Count))
system.cpu.l1d.ReadReq.avgMissLatency::total 210162.281280                       # average ReadReq miss latency ((Tick/Count))
system.cpu.l1d.ReadReq.mshrMisses::cpu.data       420886                       # number of ReadReq MSHR misses (Count)
system.cpu.l1d.ReadReq.mshrMisses::total       420886                       # number of ReadReq MSHR misses (Count)
system.cpu.l1d.ReadReq.mshrMissLatency::cpu.data  82842688881                       # number of ReadReq MSHR miss ticks (Tick)
system.cpu.l1d.ReadReq.mshrMissLatency::total  82842688881                       # number of ReadReq MSHR miss ticks (Tick)
system.cpu.l1d.ReadReq.mshrMissRate::cpu.data     0.021063                       # mshr miss rate for ReadReq accesses (Ratio)
system.cpu.l1d.ReadReq.mshrMissRate::total     0.021063                       # mshr miss rate for ReadReq accesses (Ratio)
system.cpu.l1d.ReadReq.avgMshrMissLatency::cpu.data 196829.281280                       # average ReadReq mshr miss latency ((Tick/Count))
system.cpu.l1d.ReadReq.avgMshrMissLatency::total 196829.281280                       # average ReadReq mshr miss latency ((Tick/Count))
system.cpu.l1d.WriteReq.hits::cpu.data        9002829                       # number of WriteReq hits (Count)
system.cpu.l1d.WriteReq.hits::total           9002829                       # number of WriteReq hits (Count)
system.cpu.l1d.WriteReq.misses::cpu.data       256860                       # number of WriteReq misses (Count)
system.cpu.l1d.WriteReq.misses::total          256860                       # number of WriteReq misses (Count)
system.cpu.l1d.WriteReq.missLatency::cpu.data  52347344617                       # number of WriteReq miss ticks (Tick)
system.cpu.l1d.WriteReq.missLatency::total  52347344617                       # number of WriteReq miss ticks (Tick)
system.cpu.l1d.WriteReq.accesses::cpu.data      9259689                       # number of WriteReq accesses(hits+misses) (Count)
system.cpu.l1d.WriteReq.accesses::total       9259689                       # number of WriteReq accesses(hits+misses) (Count)
system.cpu.l1d.WriteReq.missRate::cpu.data     0.027740                       # miss rate for WriteReq accesses (Ratio)
system.cpu.l1d.WriteReq.missRate::total      0.027740                       # miss rate for WriteReq accesses (Ratio)
system.cpu.l1d.WriteReq.avgMissLatency::cpu.data 203797.183746                       # average WriteReq miss latency ((Tick/Count))
system.cpu.l1d.WriteReq.avgMissLatency::total 203797.183746                       # average WriteReq miss latency ((Tick/Count))
system.cpu.l1d.WriteReq.mshrMisses::cpu.data       256860                       # number of WriteReq MSHR misses (Count)
system.cpu.l1d.WriteReq.mshrMisses::total       256860                       # number of WriteReq MSHR misses (Count)
system.cpu.l1d.WriteReq.mshrMissLatency::cpu.data  48922630237                       # number of WriteReq MSHR miss ticks (Tick)
system.cpu.l1d.WriteReq.mshrMissLatency::total  48922630237                       # number of WriteReq MSHR miss ticks (Tick)
system.cpu.l1d.WriteReq.mshrMissRate::cpu.data     0.027740                       # mshr miss rate for WriteReq accesses (Ratio)
system.cpu.l1d.WriteReq.mshrMissRate::total     0.027740                       # mshr miss rate for WriteReq accesses (Ratio)
system.cpu.l1d.WriteReq.avgMshrMissLatency::cpu.data 190464.183746                       # average WriteReq mshr miss latency ((Tick/Count))
system.cpu.l1d.WriteReq.avgMshrMissLatency::total 190464.183746                       # average WriteReq mshr miss latency ((Tick/Count))
system.cpu.l1d.power_state.pwrStateResidencyTicks::UNDEFINED 2173242547578                       # Cumulative time (in ticks) in various power states (Tick)
system.cpu.l1d.tags.tagsInUse               63.999317                       # Average ticks per tags in use ((Tick/Count))
system.cpu.l1d.tags.totalRefs                29258949                       # Total number of references to valid blocks. (Count)
system.cpu.l1d.tags.sampledRefs                677761                       # Sample count of references to valid blocks. (Count)
system.cpu.l1d.tags.avgRefs                 43.170010                       # Average number of references to valid blocks. ((Count/Count))
system.cpu.l1d.tags.warmupTick                 479988                       # The tick when the warmup percentage was hit. (Tick)
system.cpu.l1d.tags.occupancies::cpu.data    63.999317                       # Average occupied blocks per tick, per requestor ((Count/Tick))
system.cpu.l1d.tags.avgOccs::cpu.data        0.999989                       # Average percentage of cache occupancy ((Ratio/Tick))
system.cpu.l1d.tags.avgOccs::total           0.999989                       # Average percentage of cache occupancy ((Ratio/Tick))
system.cpu.l1d.tags.occupanciesTaskId::1024           64                       # Occupied blocks per task id (Count)
system.cpu.l1d.tags.ageTaskId_1024::0              13                       # Occupied blocks per task id, per block age (Count)
system.cpu.l1d.tags.ageTaskId_1024::1              51                       # Occupied blocks per task id, per block age (Count)
system.cpu.l1d.tags.ratioOccsTaskId::1024            1                       # Ratio of occupied blocks and all blocks, per task id (Ratio)
system.cpu.l1d.tags.tagAccesses              59197333                       # Number of tag accesses (Count)
system.cpu.l1d.tags.dataAccesses             59197333                       # Number of data accesses (Count)
system.cpu.l1d.tags.power_state.pwrStateResidencyTicks::UNDEFINED 2173242547578                       # Cumulative time (in ticks) in various power states (Tick)
system.cpu.l1i.demandHits::cpu.inst         120395615                       # number of demand (read+write) hits (Count)
system.cpu.l1i.demandHits::total            120395615                       # number of demand (read+write) hits (Count)
system.cpu.l1i.overallHits::cpu.inst        120395615                       # number of overall hits (Count)
system.cpu.l1i.overallHits::total           120395615                       # number of overall hits (Count)
system.cpu.l1i.demandMisses::cpu.inst          167243                       # number of demand (read+write) misses (Count)
system.cpu.l1i.demandMisses::total             167243                       # number of demand (read+write) misses (Count)
system.cpu.l1i.overallMisses::cpu.inst         167243                       # number of overall misses (Count)
system.cpu.l1i.overallMisses::total            167243                       # number of overall misses (Count)
system.cpu.l1i.demandMissLatency::cpu.inst  36022699410                       # number of demand (read+write) miss ticks (Tick)
system.cpu.l1i.demandMissLatency::total   36022699410                       # number of demand (read+write) miss ticks (Tick)
system.cpu.l1i.overallMissLatency::cpu.inst  36022699410                       # number of overall miss ticks (Tick)
system.cpu.l1i.overallMissLatency::total  36022699410                       # number of overall miss ticks (Tick)
system.cpu.l1i.demandAccesses::cpu.inst     120562858                       # number of demand (read+write) accesses (Count)
system.cpu.l1i.demandAccesses::total        120562858                       # number of demand (read+write) accesses (Count)
system.cpu.l1i.overallAccesses::cpu.inst    120562858                       # number of overall (read+write) accesses (Count)
system.cpu.l1i.overallAccesses::total       120562858                       # number of overall (read+write) accesses (Count)
system.cpu.l1i.demandMissRate::cpu.inst      0.001387                       # miss rate for demand accesses (Ratio)
system.cpu.l1i.demandMissRate::total         0.001387                       # miss rate for demand accesses (Ratio)
system.cpu.l1i.overallMissRate::cpu.inst     0.001387                       # miss rate for overall accesses (Ratio)
system.cpu.l1i.overallMissRate::total        0.001387                       # miss rate for overall accesses (Ratio)
system.cpu.l1i.demandAvgMissLatency::cpu.inst 215391.373092                       # average overall miss latency in ticks ((Tick/Count))
system.cpu.l1i.demandAvgMissLatency::total 215391.373092                       # average overall miss latency in ticks ((Tick/Count))
system.cpu.l1i.overallAvgMissLatency::cpu.inst 215391.373092                       # average overall miss latency ((Tick/Count))
system.cpu.l1i.overallAvgMissLatency::total 215391.373092                       # average overall miss latency ((Tick/Count))
system.cpu.l1i.blockedCycles::no_mshrs              0                       # number of cycles access was blocked (Cycle)
system.cpu.l1i.blockedCycles::no_targets            0                       # number of cycles access was blocked (Cycle)
system.cpu.l1i.blockedCauses::no_mshrs              0                       # number of times access was blocked (Count)
system.cpu.l1i.blockedCauses::no_targets            0                       # number of times access was blocked (Count)
system.cpu.l1i.avgBlocked::no_mshrs               nan                       # average number of cycles each access was blocked ((Cycle/Count))
system.cpu.l1i.avgBlocked::no_targets             nan                       # average number of cycles each access was blocked ((Cycle/Count))
system.cpu.l1i.demandMshrMisses::cpu.inst       167243                       # number of demand (read+write) MSHR misses (Count)
system.cpu.l1i.demandMshrMisses::total         167243                       # number of demand (read+write) MSHR misses (Count)
system.cpu.l1i.overallMshrMisses::cpu.inst       167243                       # number of overall MSHR misses (Count)
system.cpu.l1i.overallMshrMisses::total        167243                       # number of overall MSHR misses (Count)
system.cpu.l1i.demandMshrMissLatency::cpu.inst  33792848491                       # number of demand (read+write) MSHR miss ticks (Tick)
system.cpu.l1i.demandMshrMissLatency::total  33792848491                       # number of demand (read+write) MSHR miss ticks (Tick)
system.cpu.l1i.overallMshrMissLatency::cpu.inst  33792848491                       # number of overall MSHR miss ticks (Tick)
system.cpu.l1i.overallMshrMissLatency::total  33792848491                       # number of overall MSHR miss ticks (Tick)
system.cpu.l1i.demandMshrMissRate::cpu.inst     0.001387                       # mshr miss ratio for demand accesses (Ratio)
system.cpu.l1i.demandMshrMissRate::total     0.001387                       # mshr miss ratio for demand accesses (Ratio)
system.cpu.l1i.overallMshrMissRate::cpu.inst     0.001387                       # mshr miss ratio for overall accesses (Ratio)
system.cpu.l1i.overallMshrMissRate::total     0.001387                       # mshr miss ratio for overall accesses (Ratio)
system.cpu.l1i.demandAvgMshrMissLatency::cpu.inst 202058.373092                       # average overall mshr miss latency ((Tick/Count))
system.cpu.l1i.demandAvgMshrMissLatency::total 202058.373092                       # average overall mshr miss latency ((Tick/Count))
system.cpu.l1i.overallAvgMshrMissLatency::cpu.inst 202058.373092                       # average overall mshr miss latency ((Tick/Count))
system.cpu.l1i.overallAvgMshrMissLatency::total 202058.373092                       # average overall mshr miss latency ((Tick/Count))
system.cpu.l1i.replacements                    167179                       # number of replacements (Count)
system.cpu.l1i.ReadReq.hits::cpu.inst       120395615                       # number of ReadReq hits (Count)
system.cpu.l1i.ReadReq.hits::total          120395615                       # number of ReadReq hits (Count)
system.cpu.l1i.ReadReq.misses::cpu.inst        167243                       # number of ReadReq misses (Count)
system.cpu.l1i.ReadReq.misses::total           167243                       # number of ReadReq misses (Count)
system.cpu.l1i.ReadReq.missLatency::cpu.inst  36022699410                       # number of ReadReq miss ticks (Tick)
system.cpu.l1i.ReadReq.missLatency::total  36022699410                       # number of ReadReq miss ticks (Tick)
system.cpu.l1i.ReadReq.accesses::cpu.inst    120562858                       # number of ReadReq accesses(hits+misses) (Count)
system.cpu.l1i.ReadReq.accesses::total      120562858                       # number of ReadReq accesses(hits+misses) (Count)
system.cpu.l1i.ReadReq.missRate::cpu.inst     0.001387                       # miss rate for ReadReq accesses (Ratio)
system.cpu.l1i.ReadReq.missRate::total       0.001387                       # miss rate for ReadReq accesses (Ratio)
system.cpu.l1i.ReadReq.avgMissLatency::cpu.inst 215391.373092                       # average ReadReq miss latency ((Tick/Count))
system.cpu.l1i.ReadReq.avgMissLatency::total 215391.373092                       # average ReadReq miss latency ((Tick/Count))
system.cpu.l1i.ReadReq.mshrMisses::cpu.inst       167243                       # number of ReadReq MSHR misses (Count)
system.cpu.l1i.ReadReq.mshrMisses::total       167243                       # number of ReadReq MSHR misses (Count)
system.cpu.l1i.ReadReq.mshrMissLatency::cpu.inst  33792848491                       # number of ReadReq MSHR miss ticks (Tick)
system.cpu.l1i.ReadReq.mshrMissLatency::total  33792848491                       # number of ReadReq MSHR miss ticks (Tick)
system.cpu.l1i.ReadReq.mshrMissRate::cpu.inst     0.001387                       # mshr miss rate for ReadReq accesses (Ratio)
system.cpu.l1i.ReadReq.mshrMissRate::total     0.001387                       # mshr miss rate for ReadReq accesses (Ratio)
system.cpu.l1i.ReadReq.avgMshrMissLatency::cpu.inst 202058.373092                       # average ReadReq mshr miss latency ((Tick/Count))
system.cpu.l1i.ReadReq.avgMshrMissLatency::total 202058.373092                       # average ReadReq mshr miss latency ((Tick/Count))
system.cpu.l1i.power_state.pwrStateResidencyTicks::UNDEFINED 2173242547578                       # Cumulative time (in ticks) in various power states (Tick)
system.cpu.l1i.tags.tagsInUse               63.997993                       # Average ticks per tags in use ((Tick/Count))
system.cpu.l1i.tags.totalRefs               120498905                       # Total number of references to valid blocks. (Count)
system.cpu.l1i.tags.sampledRefs                167179                       # Sample count of references to valid blocks. (Count)
system.cpu.l1i.tags.avgRefs                720.777759                       # Average number of references to valid blocks. ((Count/Count))
system.cpu.l1i.tags.warmupTick                 199995                       # The tick when the warmup percentage was hit. (Tick)
system.cpu.l1i.tags.occupancies::cpu.inst    63.997993                       # Average occupied blocks per tick, per requestor ((Count/Tick))
system.cpu.l1i.tags.avgOccs::cpu.inst        0.999969                       # Average percentage of cache occupancy ((Ratio/Tick))
system.cpu.l1i.tags.avgOccs::total           0.999969                       # Average percentage of cache occupancy ((Ratio/Tick))
system.cpu.l1i.tags.occupanciesTaskId::1024           64                       # Occupied blocks per task id (Count)
system.cpu.l1i.tags.ageTaskId_1024::0               6                       # Occupied blocks per task id, per block age (Count)
system.cpu.l1i.tags.ageTaskId_1024::1               3                       # Occupied blocks per task id, per block age (Count)
system.cpu.l1i.tags.ageTaskId_1024::2               2                       # Occupied blocks per task id, per block age (Count)
system.cpu.l1i.tags.ageTaskId_1024::3              45                       # Occupied blocks per task id, per block age (Count)
system.cpu.l1i.tags.ageTaskId_1024::4               8                       # Occupied blocks per task id, per block age (Count)
system.cpu.l1i.tags.ratioOccsTaskId::1024            1                       # Ratio of occupied blocks and all blocks, per task id (Ratio)
system.cpu.l1i.tags.tagAccesses             241292959                       # Number of tag accesses (Count)
system.cpu.l1i.tags.dataAccesses            241292959                       # Number of data accesses (Count)
system.cpu.l1i.tags.power_state.pwrStateResidencyTicks::UNDEFINED 2173242547578                       # Cumulative time (in ticks) in various power states (Tick)
system.cpu.mmu.dtb.rdAccesses                19991595                       # TLB accesses on read requests (Count)
system.cpu.mmu.dtb.wrAccesses                 9268795                       # TLB accesses on write requests (Count)
system.cpu.mmu.dtb.rdMisses                      4534                       # TLB misses on read requests (Count)
system.cpu.mmu.dtb.wrMisses                      2548                       # TLB misses on write requests (Count)
system.cpu.mmu.dtb.walker.power_state.pwrStateResidencyTicks::UNDEFINED 2173242547578                       # Cumulative time (in ticks) in various power states (Tick)
system.cpu.mmu.itb.rdAccesses                       0                       # TLB accesses on read requests (Count)
system.cpu.mmu.itb.wrAccesses               120563004                       # TLB accesses on write requests (Count)
system.cpu.mmu.itb.rdMisses                         0                       # TLB misses on read requests (Count)
system.cpu.mmu.itb.wrMisses                      6990                       # TLB misses on write requests (Count)
system.cpu.mmu.itb.walker.power_state.pwrStateResidencyTicks::UNDEFINED 2173242547578                       # Cumulative time (in ticks) in various power states (Tick)
system.cpu.power_state.pwrStateResidencyTicks::ON 2173242547578                       # Cumulative time (in ticks) in various power states (Tick)
system.cpu.thread_0.numInsts                        0                       # Number of Instructions committed (Count)
system.cpu.thread_0.numOps                          0                       # Number of Ops committed (Count)
system.cpu.thread_0.numMemRefs                      0                       # Number of Memory References (Count)
system.cpu.workload.numSyscalls                   615                       # Number of system calls (Count)
system.mem_ctrl.avgPriority_writebacks::samples    233838.00                       # Average QoS priority value for accepted requests (Count)
system.mem_ctrl.avgPriority_cpu.inst::samples    167243.00                       # Average QoS priority value for accepted requests (Count)
system.mem_ctrl.avgPriority_cpu.data::samples    580727.00                       # Average QoS priority value for accepted requests (Count)
system.mem_ctrl.priorityMinLatency       0.000000018750                       # per QoS priority minimum request to response latency (Second)
system.mem_ctrl.priorityMaxLatency       0.014801209128                       # per QoS priority maximum request to response latency (Second)
system.mem_ctrl.numReadWriteTurnArounds         13014                       # Number of turnarounds from READ to WRITE (Count)
system.mem_ctrl.numWriteReadTurnArounds         13014                       # Number of turnarounds from WRITE to READ (Count)
system.mem_ctrl.numStayReadState              2353689                       # Number of times bus staying in READ state (Count)
system.mem_ctrl.numStayWriteState              221016                       # Number of times bus staying in WRITE state (Count)
system.mem_ctrl.readReqs                       845068                       # Number of read requests accepted (Count)
system.mem_ctrl.writeReqs                      300853                       # Number of write requests accepted (Count)
system.mem_ctrl.readBursts                     845068                       # Number of controller read bursts, including those serviced by the write queue (Count)
system.mem_ctrl.writeBursts                    300853                       # Number of controller write bursts, including those merged in the write queue (Count)
system.mem_ctrl.servicedByWrQ                   97098                       # Number of controller read bursts serviced by the write queue (Count)
system.mem_ctrl.mergedWrBursts                  67015                       # Number of controller write bursts merged with an existing one (Count)
system.mem_ctrl.neitherReadNorWriteReqs             0                       # Number of requests that are neither read nor write (Count)
system.mem_ctrl.avgRdQLen                        1.00                       # Average read queue length when enqueuing ((Count/Tick))
system.mem_ctrl.avgWrQLen                       24.79                       # Average write queue length when enqueuing ((Count/Tick))
system.mem_ctrl.numRdRetry                          0                       # Number of times read queue was full causing retry (Count)
system.mem_ctrl.numWrRetry                          0                       # Number of times write queue was full causing retry (Count)
system.mem_ctrl.readPktSize::0                      0                       # Read request sizes (log2) (Count)
system.mem_ctrl.readPktSize::1                      0                       # Read request sizes (log2) (Count)
system.mem_ctrl.readPktSize::2                      0                       # Read request sizes (log2) (Count)
system.mem_ctrl.readPktSize::3                      0                       # Read request sizes (log2) (Count)
system.mem_ctrl.readPktSize::4                      0                       # Read request sizes (log2) (Count)
system.mem_ctrl.readPktSize::5                      0                       # Read request sizes (log2) (Count)
system.mem_ctrl.readPktSize::6                 845068                       # Read request sizes (log2) (Count)
system.mem_ctrl.writePktSize::0                     0                       # Write request sizes (log2) (Count)
system.mem_ctrl.writePktSize::1                     0                       # Write request sizes (log2) (Count)
system.mem_ctrl.writePktSize::2                     0                       # Write request sizes (log2) (Count)
system.mem_ctrl.writePktSize::3                     0                       # Write request sizes (log2) (Count)
system.mem_ctrl.writePktSize::4                     0                       # Write request sizes (log2) (Count)
system.mem_ctrl.writePktSize::5                     0                       # Write request sizes (log2) (Count)
system.mem_ctrl.writePktSize::6                300853                       # Write request sizes (log2) (Count)
system.mem_ctrl.rdQLenPdf::0                   747823                       # What read queue length does an incoming req see (Count)
system.mem_ctrl.rdQLenPdf::1                      147                       # What read queue length does an incoming req see (Count)
system.mem_ctrl.rdQLenPdf::2                        0                       # What read queue length does an incoming req see (Count)
system.mem_ctrl.rdQLenPdf::3                        0                       # What read queue length does an incoming req see (Count)
system.mem_ctrl.rdQLenPdf::4                        0                       # What read queue length does an incoming req see (Count)
system.mem_ctrl.rdQLenPdf::5                        0                       # What read queue length does an incoming req see (Count)
system.mem_ctrl.rdQLenPdf::6                        0                       # What read queue length does an incoming req see (Count)
system.mem_ctrl.rdQLenPdf::7                        0                       # What read queue length does an incoming req see (Count)
system.mem_ctrl.rdQLenPdf::8                        0                       # What read queue length does an incoming req see (Count)
system.mem_ctrl.rdQLenPdf::9                        0                       # What read queue length does an incoming req see (Count)
system.mem_ctrl.rdQLenPdf::10                       0                       # What read queue length does an incoming req see (Count)
system.mem_ctrl.rdQLenPdf::11                       0                       # What read queue length does an incoming req see (Count)
system.mem_ctrl.rdQLenPdf::12                       0                       # What read queue length does an incoming req see (Count)
system.mem_ctrl.rdQLenPdf::13                       0                       # What read queue length does an incoming req see (Count)
system.mem_ctrl.rdQLenPdf::14                       0                       # What read queue length does an incoming req see (Count)
system.mem_ctrl.rdQLenPdf::15                       0                       # What read queue length does an incoming req see (Count)
system.mem_ctrl.rdQLenPdf::16                       0                       # What read queue length does an incoming req see (Count)
system.mem_ctrl.rdQLenPdf::17                       0                       # What read queue length does an incoming req see (Count)
system.mem_ctrl.rdQLenPdf::18                       0                       # What read queue length does an incoming req see (Count)
system.mem_ctrl.rdQLenPdf::19                       0                       # What read queue length does an incoming req see (Count)
system.mem_ctrl.rdQLenPdf::20                       0                       # What read queue length does an incoming req see (Count)
system.mem_ctrl.rdQLenPdf::21                       0                       # What read queue length does an incoming req see (Count)
system.mem_ctrl.rdQLenPdf::22                       0                       # What read queue length does an incoming req see (Count)
system.mem_ctrl.rdQLenPdf::23                       0                       # What read queue length does an incoming req see (Count)
system.mem_ctrl.rdQLenPdf::24                       0                       # What read queue length does an incoming req see (Count)
system.mem_ctrl.rdQLenPdf::25                       0                       # What read queue length does an incoming req see (Count)
system.mem_ctrl.rdQLenPdf::26                       0                       # What read queue length does an incoming req see (Count)
system.mem_ctrl.rdQLenPdf::27                       0                       # What read queue length does an incoming req see (Count)
system.mem_ctrl.rdQLenPdf::28                       0                       # What read queue length does an incoming req see (Count)
system.mem_ctrl.rdQLenPdf::29                       0                       # What read queue length does an incoming req see (Count)
system.mem_ctrl.rdQLenPdf::30                       0                       # What read queue length does an incoming req see (Count)
system.mem_ctrl.rdQLenPdf::31                       0                       # What read queue length does an incoming req see (Count)
system.mem_ctrl.wrQLenPdf::0                        1                       # What write queue length does an incoming req see (Count)
system.mem_ctrl.wrQLenPdf::1                        1                       # What write queue length does an incoming req see (Count)
system.mem_ctrl.wrQLenPdf::2                        1                       # What write queue length does an incoming req see (Count)
system.mem_ctrl.wrQLenPdf::3                        1                       # What write queue length does an incoming req see (Count)
system.mem_ctrl.wrQLenPdf::4                        1                       # What write queue length does an incoming req see (Count)
system.mem_ctrl.wrQLenPdf::5                        1                       # What write queue length does an incoming req see (Count)
system.mem_ctrl.wrQLenPdf::6                        1                       # What write queue length does an incoming req see (Count)
system.mem_ctrl.wrQLenPdf::7                        1                       # What write queue length does an incoming req see (Count)
system.mem_ctrl.wrQLenPdf::8                        1                       # What write queue length does an incoming req see (Count)
system.mem_ctrl.wrQLenPdf::9                        1                       # What write queue length does an incoming req see (Count)
system.mem_ctrl.wrQLenPdf::10                       1                       # What write queue length does an incoming req see (Count)
system.mem_ctrl.wrQLenPdf::11                       1                       # What write queue length does an incoming req see (Count)
system.mem_ctrl.wrQLenPdf::12                       1                       # What write queue length does an incoming req see (Count)
system.mem_ctrl.wrQLenPdf::13                       1                       # What write queue length does an incoming req see (Count)
system.mem_ctrl.wrQLenPdf::14                       1                       # What write queue length does an incoming req see (Count)
system.mem_ctrl.wrQLenPdf::15                   12686                       # What write queue length does an incoming req see (Count)
system.mem_ctrl.wrQLenPdf::16                   12898                       # What write queue length does an incoming req see (Count)
system.mem_ctrl.wrQLenPdf::17                   13015                       # What write queue length does an incoming req see (Count)
system.mem_ctrl.wrQLenPdf::18                   13015                       # What write queue length does an incoming req see (Count)
system.mem_ctrl.wrQLenPdf::19                   13015                       # What write queue length does an incoming req see (Count)
system.mem_ctrl.wrQLenPdf::20                   13015                       # What write queue length does an incoming req see (Count)
system.mem_ctrl.wrQLenPdf::21                   13015                       # What write queue length does an incoming req see (Count)
system.mem_ctrl.wrQLenPdf::22                   13015                       # What write queue length does an incoming req see (Count)
system.mem_ctrl.wrQLenPdf::23                   13015                       # What write queue length does an incoming req see (Count)
system.mem_ctrl.wrQLenPdf::24                   13015                       # What write queue length does an incoming req see (Count)
system.mem_ctrl.wrQLenPdf::25                   13015                       # What write queue length does an incoming req see (Count)
system.mem_ctrl.wrQLenPdf::26                   13015                       # What write queue length does an incoming req see (Count)
system.mem_ctrl.wrQLenPdf::27                   13015                       # What write queue length does an incoming req see (Count)
system.mem_ctrl.wrQLenPdf::28                   13015                       # What write queue length does an incoming req see (Count)
system.mem_ctrl.wrQLenPdf::29                   13015                       # What write queue length does an incoming req see (Count)
system.mem_ctrl.wrQLenPdf::30                   13015                       # What write queue length does an incoming req see (Count)
system.mem_ctrl.wrQLenPdf::31                   13015                       # What write queue length does an incoming req see (Count)
system.mem_ctrl.wrQLenPdf::32                   13014                       # What write queue length does an incoming req see (Count)
system.mem_ctrl.wrQLenPdf::33                       0                       # What write queue length does an incoming req see (Count)
system.mem_ctrl.wrQLenPdf::34                       0                       # What write queue length does an incoming req see (Count)
system.mem_ctrl.wrQLenPdf::35                       0                       # What write queue length does an incoming req see (Count)
system.mem_ctrl.wrQLenPdf::36                       0                       # What write queue length does an incoming req see (Count)
system.mem_ctrl.wrQLenPdf::37                       0                       # What write queue length does an incoming req see (Count)
system.mem_ctrl.wrQLenPdf::38                       0                       # What write queue length does an incoming req see (Count)
system.mem_ctrl.wrQLenPdf::39                       0                       # What write queue length does an incoming req see (Count)
system.mem_ctrl.wrQLenPdf::40                       0                       # What write queue length does an incoming req see (Count)
system.mem_ctrl.wrQLenPdf::41                       0                       # What write queue length does an incoming req see (Count)
system.mem_ctrl.wrQLenPdf::42                       0                       # What write queue length does an incoming req see (Count)
system.mem_ctrl.wrQLenPdf::43                       0                       # What write queue length does an incoming req see (Count)
system.mem_ctrl.wrQLenPdf::44                       0                       # What write queue length does an incoming req see (Count)
system.mem_ctrl.wrQLenPdf::45                       0                       # What write queue length does an incoming req see (Count)
system.mem_ctrl.wrQLenPdf::46                       0                       # What write queue length does an incoming req see (Count)
system.mem_ctrl.wrQLenPdf::47                       0                       # What write queue length does an incoming req see (Count)
system.mem_ctrl.wrQLenPdf::48                       0                       # What write queue length does an incoming req see (Count)
system.mem_ctrl.wrQLenPdf::49                       0                       # What write queue length does an incoming req see (Count)
system.mem_ctrl.wrQLenPdf::50                       0                       # What write queue length does an incoming req see (Count)
system.mem_ctrl.wrQLenPdf::51                       0                       # What write queue length does an incoming req see (Count)
system.mem_ctrl.wrQLenPdf::52                       0                       # What write queue length does an incoming req see (Count)
system.mem_ctrl.wrQLenPdf::53                       0                       # What write queue length does an incoming req see (Count)
system.mem_ctrl.wrQLenPdf::54                       0                       # What write queue length does an incoming req see (Count)
system.mem_ctrl.wrQLenPdf::55                       0                       # What write queue length does an incoming req see (Count)
system.mem_ctrl.wrQLenPdf::56                       0                       # What write queue length does an incoming req see (Count)
system.mem_ctrl.wrQLenPdf::57                       0                       # What write queue length does an incoming req see (Count)
system.mem_ctrl.wrQLenPdf::58                       0                       # What write queue length does an incoming req see (Count)
system.mem_ctrl.wrQLenPdf::59                       0                       # What write queue length does an incoming req see (Count)
system.mem_ctrl.wrQLenPdf::60                       0                       # What write queue length does an incoming req see (Count)
system.mem_ctrl.wrQLenPdf::61                       0                       # What write queue length does an incoming req see (Count)
system.mem_ctrl.wrQLenPdf::62                       0                       # What write queue length does an incoming req see (Count)
system.mem_ctrl.wrQLenPdf::63                       0                       # What write queue length does an incoming req see (Count)
system.mem_ctrl.rdPerTurnAround::samples        13014                       # Reads before turning the bus around for writes (Count)
system.mem_ctrl.rdPerTurnAround::mean       57.469802                       # Reads before turning the bus around for writes (Count)
system.mem_ctrl.rdPerTurnAround::gmean      47.607348                       # Reads before turning the bus around for writes (Count)
system.mem_ctrl.rdPerTurnAround::stdev      54.813538                       # Reads before turning the bus around for writes (Count)
system.mem_ctrl.rdPerTurnAround::0-63            9839     75.60%     75.60% # Reads before turning the bus around for writes (Count)
system.mem_ctrl.rdPerTurnAround::64-127          2365     18.17%     93.78% # Reads before turning the bus around for writes (Count)
system.mem_ctrl.rdPerTurnAround::128-191          404      3.10%     96.88% # Reads before turning the bus around for writes (Count)
system.mem_ctrl.rdPerTurnAround::192-255          245      1.88%     98.76% # Reads before turning the bus around for writes (Count)
system.mem_ctrl.rdPerTurnAround::256-319          100      0.77%     99.53% # Reads before turning the bus around for writes (Count)
system.mem_ctrl.rdPerTurnAround::320-383           17      0.13%     99.66% # Reads before turning the bus around for writes (Count)
system.mem_ctrl.rdPerTurnAround::384-447            9      0.07%     99.73% # Reads before turning the bus around for writes (Count)
system.mem_ctrl.rdPerTurnAround::448-511            5      0.04%     99.77% # Reads before turning the bus around for writes (Count)
system.mem_ctrl.rdPerTurnAround::512-575           12      0.09%     99.86% # Reads before turning the bus around for writes (Count)
system.mem_ctrl.rdPerTurnAround::576-639            1      0.01%     99.87% # Reads before turning the bus around for writes (Count)
system.mem_ctrl.rdPerTurnAround::640-703            6      0.05%     99.92% # Reads before turning the bus around for writes (Count)
system.mem_ctrl.rdPerTurnAround::704-767            5      0.04%     99.95% # Reads before turning the bus around for writes (Count)
system.mem_ctrl.rdPerTurnAround::768-831            1      0.01%     99.96% # Reads before turning the bus around for writes (Count)
system.mem_ctrl.rdPerTurnAround::832-895            1      0.01%     99.97% # Reads before turning the bus around for writes (Count)
system.mem_ctrl.rdPerTurnAround::896-959            1      0.01%     99.98% # Reads before turning the bus around for writes (Count)
system.mem_ctrl.rdPerTurnAround::1024-1087            1      0.01%     99.98% # Reads before turning the bus around for writes (Count)
system.mem_ctrl.rdPerTurnAround::1216-1279            1      0.01%     99.99% # Reads before turning the bus around for writes (Count)
system.mem_ctrl.rdPerTurnAround::1600-1663            1      0.01%    100.00% # Reads before turning the bus around for writes (Count)
system.mem_ctrl.rdPerTurnAround::total          13014                       # Reads before turning the bus around for writes (Count)
system.mem_ctrl.wrPerTurnAround::samples        13014                       # Writes before turning the bus around for reads (Count)
system.mem_ctrl.wrPerTurnAround::mean       17.965729                       # Writes before turning the bus around for reads (Count)
system.mem_ctrl.wrPerTurnAround::gmean      17.964215                       # Writes before turning the bus around for reads (Count)
system.mem_ctrl.wrPerTurnAround::stdev       0.226011                       # Writes before turning the bus around for reads (Count)
system.mem_ctrl.wrPerTurnAround::16               117      0.90%      0.90% # Writes before turning the bus around for reads (Count)
system.mem_ctrl.wrPerTurnAround::17               212      1.63%      2.53% # Writes before turning the bus around for reads (Count)
system.mem_ctrl.wrPerTurnAround::18             12685     97.47%    100.00% # Writes before turning the bus around for reads (Count)
system.mem_ctrl.wrPerTurnAround::total          13014                       # Writes before turning the bus around for reads (Count)
system.mem_ctrl.bytesReadWrQ                  6214272                       # Total number of bytes read from write queue (Byte)
system.mem_ctrl.bytesReadSys                 54084352                       # Total read bytes from the system interface side (Byte)
system.mem_ctrl.bytesWrittenSys              19254592                       # Total written bytes from the system interface side (Byte)
system.mem_ctrl.avgRdBWSys               24886477.60935614                       # Average system read bandwidth in Byte/s ((Byte/Second))
system.mem_ctrl.avgWrBWSys               8859844.94526787                       # Average system write bandwidth in Byte/s ((Byte/Second))
system.mem_ctrl.totGap                   2173242334250                       # Total gap between requests (Tick)
system.mem_ctrl.avgGap                     1896502.76                       # Average gap between requests ((Tick/Count))
system.mem_ctrl.requestorReadBytes::cpu.inst     10703552                       # Per-requestor bytes read from memory (Byte)
system.mem_ctrl.requestorReadBytes::cpu.data     37166528                       # Per-requestor bytes read from memory (Byte)
system.mem_ctrl.requestorWriteBytes::writebacks     14963584                       # Per-requestor bytes write to memory (Byte)
system.mem_ctrl.requestorReadRate::cpu.inst 4925152.975644030608                       # Per-requestor bytes read from memory rate ((Byte/Second))
system.mem_ctrl.requestorReadRate::cpu.data 17101877.579849865288                       # Per-requestor bytes read from memory rate ((Byte/Second))
system.mem_ctrl.requestorWriteRate::writebacks 6885372.282388071530                       # Per-requestor bytes write to memory rate ((Byte/Second))
system.mem_ctrl.requestorReadAccesses::cpu.inst       167243                       # Per-requestor read serviced memory accesses (Count)
system.mem_ctrl.requestorReadAccesses::cpu.data       677825                       # Per-requestor read serviced memory accesses (Count)
system.mem_ctrl.requestorWriteAccesses::writebacks       300853                       # Per-requestor write serviced memory accesses (Count)
system.mem_ctrl.requestorReadTotalLat::cpu.inst   5301865717                       # Per-requestor read total memory access latency (Tick)
system.mem_ctrl.requestorReadTotalLat::cpu.data  18182062285                       # Per-requestor read total memory access latency (Tick)
system.mem_ctrl.requestorWriteTotalLat::writebacks 51730204321979                       # Per-requestor write total memory access latency (Tick)
system.mem_ctrl.requestorReadAvgLat::cpu.inst     31701.57                       # Per-requestor read average memory access latency ((Tick/Count))
system.mem_ctrl.requestorReadAvgLat::cpu.data     26824.12                       # Per-requestor read average memory access latency ((Tick/Count))
system.mem_ctrl.requestorWriteAvgLat::writebacks 171945117.12                       # Per-requestor write average memory access latency ((Tick/Count))
system.mem_ctrl.dram.bytesRead::cpu.inst     10703552                       # Number of bytes read from this memory (Byte)
system.mem_ctrl.dram.bytesRead::cpu.data     43380800                       # Number of bytes read from this memory (Byte)
system.mem_ctrl.dram.bytesRead::total        54084352                       # Number of bytes read from this memory (Byte)
system.mem_ctrl.dram.bytesInstRead::cpu.inst     10703552                       # Number of instructions bytes read from this memory (Byte)
system.mem_ctrl.dram.bytesInstRead::total     10703552                       # Number of instructions bytes read from this memory (Byte)
system.mem_ctrl.dram.bytesWritten::writebacks     19254592                       # Number of bytes written to this memory (Byte)
system.mem_ctrl.dram.bytesWritten::total     19254592                       # Number of bytes written to this memory (Byte)
system.mem_ctrl.dram.numReads::cpu.inst        167243                       # Number of read requests responded to by this memory (Count)
system.mem_ctrl.dram.numReads::cpu.data        677825                       # Number of read requests responded to by this memory (Count)
system.mem_ctrl.dram.numReads::total           845068                       # Number of read requests responded to by this memory (Count)
system.mem_ctrl.dram.numWrites::writebacks       300853                       # Number of write requests responded to by this memory (Count)
system.mem_ctrl.dram.numWrites::total          300853                       # Number of write requests responded to by this memory (Count)
system.mem_ctrl.dram.bwRead::cpu.inst         4925153                       # Total read bandwidth from this memory ((Byte/Second))
system.mem_ctrl.dram.bwRead::cpu.data        19961325                       # Total read bandwidth from this memory ((Byte/Second))
system.mem_ctrl.dram.bwRead::total           24886478                       # Total read bandwidth from this memory ((Byte/Second))
system.mem_ctrl.dram.bwInstRead::cpu.inst      4925153                       # Instruction read bandwidth from this memory ((Byte/Second))
system.mem_ctrl.dram.bwInstRead::total        4925153                       # Instruction read bandwidth from this memory ((Byte/Second))
system.mem_ctrl.dram.bwWrite::writebacks      8859845                       # Write bandwidth from this memory ((Byte/Second))
system.mem_ctrl.dram.bwWrite::total           8859845                       # Write bandwidth from this memory ((Byte/Second))
system.mem_ctrl.dram.bwTotal::writebacks      8859845                       # Total bandwidth to/from this memory ((Byte/Second))
system.mem_ctrl.dram.bwTotal::cpu.inst        4925153                       # Total bandwidth to/from this memory ((Byte/Second))
system.mem_ctrl.dram.bwTotal::cpu.data       19961325                       # Total bandwidth to/from this memory ((Byte/Second))
system.mem_ctrl.dram.bwTotal::total          33746323                       # Total bandwidth to/from this memory ((Byte/Second))
system.mem_ctrl.dram.readBursts                747970                       # Number of DRAM read bursts (Count)
system.mem_ctrl.dram.writeBursts               233806                       # Number of DRAM write bursts (Count)
system.mem_ctrl.dram.perBankRdBursts::0         33544                       # Per bank write bursts (Count)
system.mem_ctrl.dram.perBankRdBursts::1         14563                       # Per bank write bursts (Count)
system.mem_ctrl.dram.perBankRdBursts::2         29874                       # Per bank write bursts (Count)
system.mem_ctrl.dram.perBankRdBursts::3         49006                       # Per bank write bursts (Count)
system.mem_ctrl.dram.perBankRdBursts::4         35243                       # Per bank write bursts (Count)
system.mem_ctrl.dram.perBankRdBursts::5         76263                       # Per bank write bursts (Count)
system.mem_ctrl.dram.perBankRdBursts::6         47588                       # Per bank write bursts (Count)
system.mem_ctrl.dram.perBankRdBursts::7         85977                       # Per bank write bursts (Count)
system.mem_ctrl.dram.perBankRdBursts::8         59523                       # Per bank write bursts (Count)
system.mem_ctrl.dram.perBankRdBursts::9         40795                       # Per bank write bursts (Count)
system.mem_ctrl.dram.perBankRdBursts::10        43492                       # Per bank write bursts (Count)
system.mem_ctrl.dram.perBankRdBursts::11        59943                       # Per bank write bursts (Count)
system.mem_ctrl.dram.perBankRdBursts::12        59512                       # Per bank write bursts (Count)
system.mem_ctrl.dram.perBankRdBursts::13        52983                       # Per bank write bursts (Count)
system.mem_ctrl.dram.perBankRdBursts::14        16666                       # Per bank write bursts (Count)
system.mem_ctrl.dram.perBankRdBursts::15        42998                       # Per bank write bursts (Count)
system.mem_ctrl.dram.perBankWrBursts::0           877                       # Per bank write bursts (Count)
system.mem_ctrl.dram.perBankWrBursts::1           816                       # Per bank write bursts (Count)
system.mem_ctrl.dram.perBankWrBursts::2          1184                       # Per bank write bursts (Count)
system.mem_ctrl.dram.perBankWrBursts::3         11630                       # Per bank write bursts (Count)
system.mem_ctrl.dram.perBankWrBursts::4          6526                       # Per bank write bursts (Count)
system.mem_ctrl.dram.perBankWrBursts::5         15360                       # Per bank write bursts (Count)
system.mem_ctrl.dram.perBankWrBursts::6         17542                       # Per bank write bursts (Count)
system.mem_ctrl.dram.perBankWrBursts::7         54508                       # Per bank write bursts (Count)
system.mem_ctrl.dram.perBankWrBursts::8         13694                       # Per bank write bursts (Count)
system.mem_ctrl.dram.perBankWrBursts::9          8108                       # Per bank write bursts (Count)
system.mem_ctrl.dram.perBankWrBursts::10        18355                       # Per bank write bursts (Count)
system.mem_ctrl.dram.perBankWrBursts::11        23576                       # Per bank write bursts (Count)
system.mem_ctrl.dram.perBankWrBursts::12        27141                       # Per bank write bursts (Count)
system.mem_ctrl.dram.perBankWrBursts::13        19723                       # Per bank write bursts (Count)
system.mem_ctrl.dram.perBankWrBursts::14         2520                       # Per bank write bursts (Count)
system.mem_ctrl.dram.perBankWrBursts::15        12246                       # Per bank write bursts (Count)
system.mem_ctrl.dram.totQLat               9459490502                       # Total ticks spent queuing (Tick)
system.mem_ctrl.dram.totBusLat             3739850000                       # Total ticks spent in databus transfers (Tick)
system.mem_ctrl.dram.totMemAccLat         23483928002                       # Total ticks spent from burst creation until serviced by the DRAM (Tick)
system.mem_ctrl.dram.avgQLat                 12646.88                       # Average queueing delay per DRAM burst ((Tick/Count))
system.mem_ctrl.dram.avgBusLat                5000.00                       # Average bus latency per DRAM burst ((Tick/Count))
system.mem_ctrl.dram.avgMemAccLat            31396.88                       # Average memory access latency per DRAM burst ((Tick/Count))
system.mem_ctrl.dram.readRowHits               351096                       # Number of row buffer hits during reads (Count)
system.mem_ctrl.dram.writeRowHits              206146                       # Number of row buffer hits during writes (Count)
[...]
system.mem_ctrl.dram.bwRead::cpu.data        23283540                       # Total read bandwidth from this memory ((Byte/Second))
system.mem_ctrl.dram.bwRead::total           97497811                       # Total read bandwidth from this memory ((Byte/Second))
system.mem_ctrl.dram.bwInstRead::cpu.inst     74214271                       # Instruction read bandwidth from this memory ((Byte/Second))
system.mem_ctrl.dram.bwInstRead::total       74214271                       # Instruction read bandwidth from this memory ((Byte/Second))
system.mem_ctrl.dram.bwWrite::writebacks      7315699                       # Write bandwidth from this memory ((Byte/Second))
system.mem_ctrl.dram.bwWrite::total           7315699                       # Write bandwidth from this memory ((Byte/Second))
system.mem_ctrl.dram.bwTotal::writebacks      7315699                       # Total bandwidth to/from this memory ((Byte/Second))
system.mem_ctrl.dram.bwTotal::cpu.inst       74214271                       # Total bandwidth to/from this memory ((Byte/Second))
system.mem_ctrl.dram.bwTotal::cpu.data       23283540                       # Total bandwidth to/from this memory ((Byte/Second))
system.mem_ctrl.dram.bwTotal::total         104813510                       # Total bandwidth to/from this memory ((Byte/Second))
system.mem_ctrl.dram.readBursts                454216                       # Number of DRAM read bursts (Count)
system.mem_ctrl.dram.writeBursts                14474                       # Number of DRAM write bursts (Count)
system.mem_ctrl.dram.perBankRdBursts::0         50648                       # Per bank write bursts (Count)
system.mem_ctrl.dram.perBankRdBursts::1         34340                       # Per bank write bursts (Count)
system.mem_ctrl.dram.perBankRdBursts::2         11805                       # Per bank write bursts (Count)
system.mem_ctrl.dram.perBankRdBursts::3          5471                       # Per bank write bursts (Count)
system.mem_ctrl.dram.perBankRdBursts::4          2931                       # Per bank write bursts (Count)
system.mem_ctrl.dram.perBankRdBursts::5         30511                       # Per bank write bursts (Count)
system.mem_ctrl.dram.perBankRdBursts::6          3732                       # Per bank write bursts (Count)
system.mem_ctrl.dram.perBankRdBursts::7          7921                       # Per bank write bursts (Count)
system.mem_ctrl.dram.perBankRdBursts::8         52367                       # Per bank write bursts (Count)
system.mem_ctrl.dram.perBankRdBursts::9         15159                       # Per bank write bursts (Count)
system.mem_ctrl.dram.perBankRdBursts::10        42957                       # Per bank write bursts (Count)
system.mem_ctrl.dram.perBankRdBursts::11         3595                       # Per bank write bursts (Count)
system.mem_ctrl.dram.perBankRdBursts::12         3007                       # Per bank write bursts (Count)
system.mem_ctrl.dram.perBankRdBursts::13         2725                       # Per bank write bursts (Count)
system.mem_ctrl.dram.perBankRdBursts::14        76417                       # Per bank write bursts (Count)
system.mem_ctrl.dram.perBankRdBursts::15       110630                       # Per bank write bursts (Count)
system.mem_ctrl.dram.perBankWrBursts::0           408                       # Per bank write bursts (Count)
system.mem_ctrl.dram.perBankWrBursts::1           400                       # Per bank write bursts (Count)
system.mem_ctrl.dram.perBankWrBursts::2           405                       # Per bank write bursts (Count)
system.mem_ctrl.dram.perBankWrBursts::3           410                       # Per bank write bursts (Count)
system.mem_ctrl.dram.perBankWrBursts::4           603                       # Per bank write bursts (Count)
system.mem_ctrl.dram.perBankWrBursts::5          1165                       # Per bank write bursts (Count)
system.mem_ctrl.dram.perBankWrBursts::6           930                       # Per bank write bursts (Count)
system.mem_ctrl.dram.perBankWrBursts::7          4368                       # Per bank write bursts (Count)
system.mem_ctrl.dram.perBankWrBursts::8           938                       # Per bank write bursts (Count)
system.mem_ctrl.dram.perBankWrBursts::9           701                       # Per bank write bursts (Count)
system.mem_ctrl.dram.perBankWrBursts::10          556                       # Per bank write bursts (Count)
system.mem_ctrl.dram.perBankWrBursts::11          820                       # Per bank write bursts (Count)
system.mem_ctrl.dram.perBankWrBursts::12         1301                       # Per bank write bursts (Count)
system.mem_ctrl.dram.perBankWrBursts::13          585                       # Per bank write bursts (Count)
system.mem_ctrl.dram.perBankWrBursts::14          489                       # Per bank write bursts (Count)
system.mem_ctrl.dram.perBankWrBursts::15          395                       # Per bank write bursts (Count)
system.mem_ctrl.dram.totQLat               5292879868                       # Total ticks spent queuing (Tick)
system.mem_ctrl.dram.totBusLat             2271080000                       # Total ticks spent in databus transfers (Tick)
system.mem_ctrl.dram.totMemAccLat         13809429868                       # Total ticks spent from burst creation until serviced by the DRAM (Tick)
system.mem_ctrl.dram.avgQLat                 11652.78                       # Average queueing delay per DRAM burst ((Tick/Count))
system.mem_ctrl.dram.avgBusLat                5000.00                       # Average bus latency per DRAM burst ((Tick/Count))
system.mem_ctrl.dram.avgMemAccLat            30402.78                       # Average memory access latency per DRAM burst ((Tick/Count))
system.mem_ctrl.dram.readRowHits               260859                       # Number of row buffer hits during reads (Count)
system.mem_ctrl.dram.writeRowHits               12822                       # Number of row buffer hits during writes (Count)
system.mem_ctrl.dram.readRowHitRate             57.43                       # Row buffer hit rate for reads (Ratio)
system.mem_ctrl.dram.writeRowHitRate            88.59                       # Row buffer hit rate for writes (Ratio)
system.mem_ctrl.dram.bytesPerActivate::samples       195010                       # Bytes accessed per row activation (Byte)
system.mem_ctrl.dram.bytesPerActivate::mean   153.818245                       # Bytes accessed per row activation (Byte)
system.mem_ctrl.dram.bytesPerActivate::gmean   117.155755                       # Bytes accessed per row activation (Byte)
system.mem_ctrl.dram.bytesPerActivate::stdev   132.267622                       # Bytes accessed per row activation (Byte)
system.mem_ctrl.dram.bytesPerActivate::0-127        98237     50.38%     50.38% # Bytes accessed per row activation (Byte)
system.mem_ctrl.dram.bytesPerActivate::128-255        55646     28.53%     78.91% # Bytes accessed per row activation (Byte)
system.mem_ctrl.dram.bytesPerActivate::256-383        21256     10.90%     89.81% # Bytes accessed per row activation (Byte)
system.mem_ctrl.dram.bytesPerActivate::384-511        13439      6.89%     96.70% # Bytes accessed per row activation (Byte)
system.mem_ctrl.dram.bytesPerActivate::512-639         5291      2.71%     99.41% # Bytes accessed per row activation (Byte)
system.mem_ctrl.dram.bytesPerActivate::640-767          403      0.21%     99.62% # Bytes accessed per row activation (Byte)
system.mem_ctrl.dram.bytesPerActivate::768-895          116      0.06%     99.68% # Bytes accessed per row activation (Byte)
system.mem_ctrl.dram.bytesPerActivate::896-1023          122      0.06%     99.74% # Bytes accessed per row activation (Byte)
system.mem_ctrl.dram.bytesPerActivate::1024-1151          500      0.26%    100.00% # Bytes accessed per row activation (Byte)
system.mem_ctrl.dram.bytesPerActivate::total       195010                       # Bytes accessed per row activation (Byte)
system.mem_ctrl.dram.dramBytesRead           29069824                       # Total bytes read (Byte)
system.mem_ctrl.dram.dramBytesWritten          926336                       # Total bytes written (Byte)
system.mem_ctrl.dram.avgRdBW                92.016710                       # Average DRAM read bandwidth in MiBytes/s ((Byte/Second))
system.mem_ctrl.dram.avgWrBW                 2.932195                       # Average DRAM write bandwidth in MiBytes/s ((Byte/Second))
system.mem_ctrl.dram.peakBW                  12800.00                       # Theoretical peak bandwidth in MiByte/s ((Byte/Second))
system.mem_ctrl.dram.busUtil                     0.74                       # Data bus utilization in percentage (Ratio)
system.mem_ctrl.dram.busUtilRead                 0.72                       # Data bus utilization in percentage for reads (Ratio)
system.mem_ctrl.dram.busUtilWrite                0.02                       # Data bus utilization in percentage for writes (Ratio)
system.mem_ctrl.dram.pageHitRate                58.39                       # Row buffer hit rate, read and write combined (Ratio)
system.mem_ctrl.dram.power_state.pwrStateResidencyTicks::UNDEFINED 315918968495                       # Cumulative time (in ticks) in various power states (Tick)
system.mem_ctrl.dram.rank0.actEnergy        566194860                       # Energy for activate commands per rank (pJ) (Joule)
system.mem_ctrl.dram.rank0.preEnergy        300947295                       # Energy for precharge commands per rank (pJ) (Joule)
system.mem_ctrl.dram.rank0.readEnergy      1052143260                       # Energy for read commands per rank (pJ) (Joule)
system.mem_ctrl.dram.rank0.writeEnergy       45356580                       # Energy for write commands per rank (pJ) (Joule)
system.mem_ctrl.dram.rank0.refreshEnergy 24938403360.000004                       # Energy for refresh commands per rank (pJ) (Joule)
system.mem_ctrl.dram.rank0.actBackEnergy  89315162760                       # Energy for active background per rank (pJ) (Joule)
system.mem_ctrl.dram.rank0.preBackEnergy  46100115360                       # Energy for precharge background per rank (pJ) (Joule)
system.mem_ctrl.dram.rank0.actPowerDownEnergy            0                       # Energy for active power-down per rank (pJ) (Joule)
system.mem_ctrl.dram.rank0.prePowerDownEnergy            0                       # Energy for precharge power-down per rank (pJ) (Joule)
system.mem_ctrl.dram.rank0.selfRefreshEnergy            0                       # Energy for self refresh per rank (pJ) (Joule)
system.mem_ctrl.dram.rank0.totalEnergy   162318323475                       # Total energy per rank (pJ) (Joule)
system.mem_ctrl.dram.rank0.averagePower    513.797333                       # Core power per rank (mW) (Watt)
system.mem_ctrl.dram.rank0.totalIdleTime            0                       # Total Idle time Per DRAM Rank (Tick)
system.mem_ctrl.dram.rank0.pwrStateTime::IDLE 118836523009                       # Time in different power states (Tick)
system.mem_ctrl.dram.rank0.pwrStateTime::REF  10549240000                       # Time in different power states (Tick)
system.mem_ctrl.dram.rank0.pwrStateTime::SREF            0                       # Time in different power states (Tick)
system.mem_ctrl.dram.rank0.pwrStateTime::PRE_PDN            0                       # Time in different power states (Tick)
system.mem_ctrl.dram.rank0.pwrStateTime::ACT 186533205486                       # Time in different power states (Tick)
system.mem_ctrl.dram.rank0.pwrStateTime::ACT_PDN            0                       # Time in different power states (Tick)
system.mem_ctrl.dram.rank1.actEnergy        826169400                       # Energy for activate commands per rank (pJ) (Joule)
system.mem_ctrl.dram.rank1.preEnergy        439115655                       # Energy for precharge commands per rank (pJ) (Joule)
system.mem_ctrl.dram.rank1.readEnergy      2190958980                       # Energy for read commands per rank (pJ) (Joule)
system.mem_ctrl.dram.rank1.writeEnergy       30197700                       # Energy for write commands per rank (pJ) (Joule)
system.mem_ctrl.dram.rank1.refreshEnergy 24938403360.000004                       # Energy for refresh commands per rank (pJ) (Joule)
system.mem_ctrl.dram.rank1.actBackEnergy 116201394150                       # Energy for active background per rank (pJ) (Joule)
system.mem_ctrl.dram.rank1.preBackEnergy  23459078400                       # Energy for precharge background per rank (pJ) (Joule)
system.mem_ctrl.dram.rank1.actPowerDownEnergy            0                       # Energy for active power-down per rank (pJ) (Joule)
system.mem_ctrl.dram.rank1.prePowerDownEnergy            0                       # Energy for precharge power-down per rank (pJ) (Joule)
system.mem_ctrl.dram.rank1.selfRefreshEnergy            0                       # Energy for self refresh per rank (pJ) (Joule)
system.mem_ctrl.dram.rank1.totalEnergy   168085317645                       # Total energy per rank (pJ) (Joule)
system.mem_ctrl.dram.rank1.averagePower    532.051996                       # Core power per rank (mW) (Watt)
system.mem_ctrl.dram.rank1.totalIdleTime            0                       # Total Idle time Per DRAM Rank (Tick)
system.mem_ctrl.dram.rank1.pwrStateTime::IDLE  59998460368                       # Time in different power states (Tick)
system.mem_ctrl.dram.rank1.pwrStateTime::REF  10549240000                       # Time in different power states (Tick)
system.mem_ctrl.dram.rank1.pwrStateTime::SREF            0                       # Time in different power states (Tick)
system.mem_ctrl.dram.rank1.pwrStateTime::PRE_PDN            0                       # Time in different power states (Tick)
system.mem_ctrl.dram.rank1.pwrStateTime::ACT 245371268127                       # Time in different power states (Tick)
system.mem_ctrl.dram.rank1.pwrStateTime::ACT_PDN            0                       # Time in different power states (Tick)
system.mem_ctrl.power_state.pwrStateResidencyTicks::UNDEFINED 315918968495                       # Cumulative time (in ticks) in various power states (Tick)
system.membus.transDist::ReadResp              449036                       # Transaction distribution (Count)
system.membus.transDist::WritebackDirty         36112                       # Transaction distribution (Count)
system.membus.transDist::CleanEvict            445160                       # Transaction distribution (Count)
system.membus.transDist::ReadExReq              32236                       # Transaction distribution (Count)
system.membus.transDist::ReadExResp             32236                       # Transaction distribution (Count)
system.membus.transDist::ReadSharedReq         449036                       # Transaction distribution (Count)
system.membus.pktCount_system.cpu.l1d.mem_side_port::system.mem_ctrl.port       344799                       # Packet count per connected requestor and responder (Count)
system.membus.pktCount_system.cpu.l1d.mem_side_port::total       344799                       # Packet count per connected requestor and responder (Count)
system.membus.pktCount_system.cpu.l1i.mem_side_port::system.mem_ctrl.port      1099017                       # Packet count per connected requestor and responder (Count)
system.membus.pktCount_system.cpu.l1i.mem_side_port::total      1099017                       # Packet count per connected requestor and responder (Count)
system.membus.pktCount::total                 1443816                       # Packet count per connected requestor and responder (Count)
system.membus.pktSize_system.cpu.l1d.mem_side_port::system.mem_ctrl.port      9666880                       # Cumulative packet size per connected requestor and responder (Byte)
system.membus.pktSize_system.cpu.l1d.mem_side_port::total      9666880                       # Cumulative packet size per connected requestor and responder (Byte)
system.membus.pktSize_system.cpu.l1i.mem_side_port::system.mem_ctrl.port     23445696                       # Cumulative packet size per connected requestor and responder (Byte)
system.membus.pktSize_system.cpu.l1i.mem_side_port::total     23445696                       # Cumulative packet size per connected requestor and responder (Byte)
system.membus.pktSize::total                 33112576                       # Cumulative packet size per connected requestor and responder (Byte)
system.membus.snoops                                0                       # Total snoops (Count)
system.membus.snoopTraffic                          0                       # Total snoop traffic (Byte)
system.membus.snoopFanout::samples             481272                       # Request fanout histogram (Count)
system.membus.snoopFanout::mean                     0                       # Request fanout histogram (Count)
system.membus.snoopFanout::stdev                    0                       # Request fanout histogram (Count)
system.membus.snoopFanout::underflows               0      0.00%      0.00% # Request fanout histogram (Count)
system.membus.snoopFanout::0                   481272    100.00%    100.00% # Request fanout histogram (Count)
system.membus.snoopFanout::1                        0      0.00%    100.00% # Request fanout histogram (Count)
system.membus.snoopFanout::2                        0      0.00%    100.00% # Request fanout histogram (Count)
system.membus.snoopFanout::overflows                0      0.00%    100.00% # Request fanout histogram (Count)
system.membus.snoopFanout::min_value                0                       # Request fanout histogram (Count)
system.membus.snoopFanout::max_value                0                       # Request fanout histogram (Count)
system.membus.snoopFanout::total               481272                       # Request fanout histogram (Count)
system.membus.power_state.pwrStateResidencyTicks::UNDEFINED 315918968495                       # Cumulative time (in ticks) in various power states (Tick)
system.membus.reqLayer2.occupancy         14759524336                       # Layer occupancy (ticks) (Tick)
system.membus.reqLayer2.utilization               0.0                       # Layer utilization (Ratio)
system.membus.respLayer2.occupancy         7847022035                       # Layer occupancy (ticks) (Tick)
system.membus.respLayer2.utilization              0.0                       # Layer utilization (Ratio)
system.membus.respLayer3.occupancy        24898927807                       # Layer occupancy (ticks) (Tick)
system.membus.respLayer3.utilization              0.1                       # Layer utilization (Ratio)
system.membus.snoop_filter.totRequests         962544                       # Total number of requests made to the snoop filter. (Count)
system.membus.snoop_filter.hitSingleRequests       481272                       # Number of requests hitting in the snoop filter with a single holder of the requested data. (Count)
system.membus.snoop_filter.hitMultiRequests            0                       # Number of requests hitting in the snoop filter with multiple (>1) holders of the requested data. (Count)
system.membus.snoop_filter.totSnoops                0                       # Total number of snoops made to the snoop filter. (Count)
system.membus.snoop_filter.hitSingleSnoops            0                       # Number of snoops hitting in the snoop filter with a single holder of the requested data. (Count)
system.membus.snoop_filter.hitMultiSnoops            0                       # Number of snoops hitting in the snoop filter with multiple (>1) holders of the requested data. (Count)
system.workload.inst.arm                            0                       # number of arm instructions executed (Count)
system.workload.inst.quiesce                        0                       # number of quiesce instructions executed (Count)

---------- End Simulation Statistics   ----------
