
---------- Begin Simulation Statistics ----------
simSeconds                                   3.046915                       # Number of seconds simulated (Second)
simTicks                                 3046914665229                       # Number of ticks simulated (Tick)
finalTick                                3046914665229                       # Number of ticks from beginning of simulation (restored from checkpoints and never reset) (Tick)
simFreq                                  1000000000000                       # The number of ticks per simulated second ((Tick/Second))
hostSeconds                                   1296.37                       # Real time elapsed on the host (Second)
hostTickRate                               2350343709                       # The number of ticks simulated per host second (ticks/s) ((Tick/Second))
hostMemory                                    8655956                       # Number of bytes of host memory used (Byte)
simInsts                                    265600382                       # Number of instructions simulated (Count)
simOps                                      501612418                       # Number of ops (including micro ops) simulated (Count)
hostInstRate                                   204880                       # Simulator instruction rate (inst/s) ((Count/Second))
hostOpRate                                     386936                       # Simulator op (including micro ops) rate (op/s) ((Count/Second))
system.clk_domain.clock                         13333                       # Clock period in ticks (Tick)
system.clk_domain.voltage_domain.voltage            1                       # Voltage in Volts (Volt)
system.cpu.numCycles                        228524314                       # Number of cpu cycles simulated (Cycle)
system.cpu.cpi                               0.860407                       # CPI: cycles per instruction (core level) ((Cycle/Count))
system.cpu.ipc                               1.162241                       # IPC: instructions per cycle (core level) ((Count/Cycle))
system.cpu.numWorkItemsStarted                      0                       # Number of work items this cpu started (Count)
system.cpu.numWorkItemsCompleted                    0                       # Number of work items this cpu completed (Count)
system.cpu.instsAdded                       676241812                       # Number of instructions added to the IQ (excludes non-spec) (Count)
system.cpu.nonSpecInstsAdded                     3483                       # Number of non-speculative instructions added to the IQ (Count)
system.cpu.instsIssued                      622877791                       # Number of instructions issued (Count)
system.cpu.squashedInstsIssued                3044397                       # Number of squashed instructions issued (Count)
system.cpu.squashedInstsExamined            174632866                       # Number of squashed instructions iterated over during squash; mainly for profiling (Count)
system.cpu.squashedOperandsExamined         305732377                       # Number of squashed operands that are examined and possibly removed from graph (Count)
system.cpu.squashedNonSpecRemoved                 435                       # Number of squashed non-spec instructions that were removed (Count)
system.cpu.numIssuedDist::samples           227175487                       # Number of insts issued each cycle (Count)
system.cpu.numIssuedDist::mean               2.741835                       # Number of insts issued each cycle (Count)
system.cpu.numIssuedDist::stdev              2.837136                       # Number of insts issued each cycle (Count)
system.cpu.numIssuedDist::underflows                0      0.00%      0.00% # Number of insts issued each cycle (Count)
system.cpu.numIssuedDist::0                  92667644     40.79%     40.79% # Number of insts issued each cycle (Count)
system.cpu.numIssuedDist::1                  16971592      7.47%     48.26% # Number of insts issued each cycle (Count)
system.cpu.numIssuedDist::2                  13265817      5.84%     54.10% # Number of insts issued each cycle (Count)
system.cpu.numIssuedDist::3                  14512984      6.39%     60.49% # Number of insts issued each cycle (Count)
system.cpu.numIssuedDist::4                  12311292      5.42%     65.91% # Number of insts issued each cycle (Count)
system.cpu.numIssuedDist::5                  20332577      8.95%     74.86% # Number of insts issued each cycle (Count)
system.cpu.numIssuedDist::6                  27470501     12.09%     86.95% # Number of insts issued each cycle (Count)
system.cpu.numIssuedDist::7                  17040086      7.50%     94.45% # Number of insts issued each cycle (Count)
system.cpu.numIssuedDist::8                  12602994      5.55%    100.00% # Number of insts issued each cycle (Count)
system.cpu.numIssuedDist::overflows                 0      0.00%    100.00% # Number of insts issued each cycle (Count)
system.cpu.numIssuedDist::min_value                 0                       # Number of insts issued each cycle (Count)
system.cpu.numIssuedDist::max_value                 8                       # Number of insts issued each cycle (Count)
system.cpu.numIssuedDist::total             227175487                       # Number of insts issued each cycle (Count)
system.cpu.statFuBusy::No_OpClass                   0      0.00%      0.00% # attempts to use FU when none available (Count)
system.cpu.statFuBusy::IntAlu                18246410     84.25%     84.25% # attempts to use FU when none available (Count)
system.cpu.statFuBusy::IntMult                      0      0.00%     84.25% # attempts to use FU when none available (Count)
system.cpu.statFuBusy::IntDiv                       0      0.00%     84.25% # attempts to use FU when none available (Count)
system.cpu.statFuBusy::FloatAdd                     0      0.00%     84.25% # attempts to use FU when none available (Count)
system.cpu.statFuBusy::FloatCmp                     0      0.00%     84.25% # attempts to use FU when none available (Count)
system.cpu.statFuBusy::FloatCvt                     0      0.00%     84.25% # attempts to use FU when none available (Count)
system.cpu.statFuBusy::FloatMult                    0      0.00%     84.25% # attempts to use FU when none available (Count)
system.cpu.statFuBusy::FloatMultAcc                 0      0.00%     84.25% # attempts to use FU when none available (Count)
system.cpu.statFuBusy::FloatDiv                     0      0.00%     84.25% # attempts to use FU when none available (Count)
system.cpu.statFuBusy::FloatMisc                    0      0.00%     84.25% # attempts to use FU when none available (Count)
system.cpu.statFuBusy::FloatSqrt                    0      0.00%     84.25% # attempts to use FU when none available (Count)
system.cpu.statFuBusy::SimdAdd                      3      0.00%     84.25% # attempts to use FU when none available (Count)
system.cpu.statFuBusy::SimdAddAcc                   0      0.00%     84.25% # attempts to use FU when none available (Count)
system.cpu.statFuBusy::SimdAlu                  65604      0.30%     84.55% # attempts to use FU when none available (Count)
system.cpu.statFuBusy::SimdCmp                      1      0.00%     84.55% # attempts to use FU when none available (Count)
system.cpu.statFuBusy::SimdCvt                    166      0.00%     84.55% # attempts to use FU when none available (Count)
system.cpu.statFuBusy::SimdMisc                    23      0.00%     84.55% # attempts to use FU when none available (Count)
system.cpu.statFuBusy::SimdMult                     0      0.00%     84.55% # attempts to use FU when none available (Count)
system.cpu.statFuBusy::SimdMultAcc                  0      0.00%     84.55% # attempts to use FU when none available (Count)
system.cpu.statFuBusy::SimdMatMultAcc               0      0.00%     84.55% # attempts to use FU when none available (Count)
system.cpu.statFuBusy::SimdShift                   24      0.00%     84.55% # attempts to use FU when none available (Count)
system.cpu.statFuBusy::SimdShiftAcc                 0      0.00%     84.55% # attempts to use FU when none available (Count)
system.cpu.statFuBusy::SimdDiv                      0      0.00%     84.55% # attempts to use FU when none available (Count)
system.cpu.statFuBusy::SimdSqrt                     0      0.00%     84.55% # attempts to use FU when none available (Count)
system.cpu.statFuBusy::SimdFloatAdd                 0      0.00%     84.55% # attempts to use FU when none available (Count)
system.cpu.statFuBusy::SimdFloatAlu                 0      0.00%     84.55% # attempts to use FU when none available (Count)
system.cpu.statFuBusy::SimdFloatCmp                 0      0.00%     84.55% # attempts to use FU when none available (Count)
system.cpu.statFuBusy::SimdFloatCvt             14683      0.07%     84.62% # attempts to use FU when none available (Count)
system.cpu.statFuBusy::SimdFloatDiv                 0      0.00%     84.62% # attempts to use FU when none available (Count)
system.cpu.statFuBusy::SimdFloatMisc                0      0.00%     84.62% # attempts to use FU when none available (Count)
system.cpu.statFuBusy::SimdFloatMult                0      0.00%     84.62% # attempts to use FU when none available (Count)
system.cpu.statFuBusy::SimdFloatMultAcc             0      0.00%     84.62% # attempts to use FU when none available (Count)
system.cpu.statFuBusy::SimdFloatMatMultAcc            0      0.00%     84.62% # attempts to use FU when none available (Count)
system.cpu.statFuBusy::SimdFloatSqrt                0      0.00%     84.62% # attempts to use FU when none available (Count)
system.cpu.statFuBusy::SimdReduceAdd                0      0.00%     84.62% # attempts to use FU when none available (Count)
system.cpu.statFuBusy::SimdReduceAlu                0      0.00%     84.62% # attempts to use FU when none available (Count)
system.cpu.statFuBusy::SimdReduceCmp                0      0.00%     84.62% # attempts to use FU when none available (Count)
system.cpu.statFuBusy::SimdFloatReduceAdd            0      0.00%     84.62% # attempts to use FU when none available (Count)
system.cpu.statFuBusy::SimdFloatReduceCmp            0      0.00%     84.62% # attempts to use FU when none available (Count)
system.cpu.statFuBusy::SimdAes                      0      0.00%     84.62% # attempts to use FU when none available (Count)
system.cpu.statFuBusy::SimdAesMix                   0      0.00%     84.62% # attempts to use FU when none available (Count)
system.cpu.statFuBusy::SimdSha1Hash                 0      0.00%     84.62% # attempts to use FU when none available (Count)
system.cpu.statFuBusy::SimdSha1Hash2                0      0.00%     84.62% # attempts to use FU when none available (Count)
system.cpu.statFuBusy::SimdSha256Hash               0      0.00%     84.62% # attempts to use FU when none available (Count)
system.cpu.statFuBusy::SimdSha256Hash2              0      0.00%     84.62% # attempts to use FU when none available (Count)
system.cpu.statFuBusy::SimdShaSigma2                0      0.00%     84.62% # attempts to use FU when none available (Count)
system.cpu.statFuBusy::SimdShaSigma3                0      0.00%     84.62% # attempts to use FU when none available (Count)
system.cpu.statFuBusy::SimdPredAlu                  0      0.00%     84.62% # attempts to use FU when none available (Count)
system.cpu.statFuBusy::Matrix                       0      0.00%     84.62% # attempts to use FU when none available (Count)
system.cpu.statFuBusy::MatrixMov                    0      0.00%     84.62% # attempts to use FU when none available (Count)
system.cpu.statFuBusy::MatrixOP                     0      0.00%     84.62% # attempts to use FU when none available (Count)
system.cpu.statFuBusy::MemRead                1721481      7.95%     92.57% # attempts to use FU when none available (Count)
system.cpu.statFuBusy::MemWrite                158074      0.73%     93.30% # attempts to use FU when none available (Count)
system.cpu.statFuBusy::FloatMemRead           1220335      5.63%     98.93% # attempts to use FU when none available (Count)
system.cpu.statFuBusy::FloatMemWrite           230747      1.07%    100.00% # attempts to use FU when none available (Count)
system.cpu.statFuBusy::IprAccess                    0      0.00%    100.00% # attempts to use FU when none available (Count)
system.cpu.statFuBusy::InstPrefetch                 0      0.00%    100.00% # attempts to use FU when none available (Count)
system.cpu.statFuBusy::SimdUnitStrideLoad            0      0.00%    100.00% # attempts to use FU when none available (Count)
system.cpu.statFuBusy::SimdUnitStrideStore            0      0.00%    100.00% # attempts to use FU when none available (Count)
system.cpu.statFuBusy::SimdUnitStrideMaskLoad            0      0.00%    100.00% # attempts to use FU when none available (Count)
system.cpu.statFuBusy::SimdUnitStrideMaskStore            0      0.00%    100.00% # attempts to use FU when none available (Count)
system.cpu.statFuBusy::SimdStridedLoad              0      0.00%    100.00% # attempts to use FU when none available (Count)
system.cpu.statFuBusy::SimdStridedStore             0      0.00%    100.00% # attempts to use FU when none available (Count)
system.cpu.statFuBusy::SimdIndexedLoad              0      0.00%    100.00% # attempts to use FU when none available (Count)
system.cpu.statFuBusy::SimdIndexedStore             0      0.00%    100.00% # attempts to use FU when none available (Count)
system.cpu.statFuBusy::SimdWholeRegisterLoad            0      0.00%    100.00% # attempts to use FU when none available (Count)
system.cpu.statFuBusy::SimdWholeRegisterStore            0      0.00%    100.00% # attempts to use FU when none available (Count)
system.cpu.statFuBusy::SimdUnitStrideFaultOnlyFirstLoad            0      0.00%    100.00% # attempts to use FU when none available (Count)
system.cpu.statFuBusy::SimdUnitStrideSegmentedLoad            0      0.00%    100.00% # attempts to use FU when none available (Count)
system.cpu.statFuBusy::SimdUnitStrideSegmentedStore            0      0.00%    100.00% # attempts to use FU when none available (Count)
system.cpu.statFuBusy::SimdExt                      0      0.00%    100.00% # attempts to use FU when none available (Count)
system.cpu.statFuBusy::SimdFloatExt                 0      0.00%    100.00% # attempts to use FU when none available (Count)
system.cpu.statFuBusy::SimdConfig                   0      0.00%    100.00% # attempts to use FU when none available (Count)
system.cpu.statIssuedInstType_0::No_OpClass      2932899      0.47%      0.47% # Number of instructions issued per FU type, per thread (Count)
system.cpu.statIssuedInstType_0::IntAlu     486333149     78.08%     78.55% # Number of instructions issued per FU type, per thread (Count)
system.cpu.statIssuedInstType_0::IntMult       842458      0.14%     78.68% # Number of instructions issued per FU type, per thread (Count)
system.cpu.statIssuedInstType_0::IntDiv       2511965      0.40%     79.09% # Number of instructions issued per FU type, per thread (Count)
system.cpu.statIssuedInstType_0::FloatAdd     11541551      1.85%     80.94% # Number of instructions issued per FU type, per thread (Count)
system.cpu.statIssuedInstType_0::FloatCmp            0      0.00%     80.94% # Number of instructions issued per FU type, per thread (Count)
system.cpu.statIssuedInstType_0::FloatCvt         1662      0.00%     80.94% # Number of instructions issued per FU type, per thread (Count)
system.cpu.statIssuedInstType_0::FloatMult            0      0.00%     80.94% # Number of instructions issued per FU type, per thread (Count)
system.cpu.statIssuedInstType_0::FloatMultAcc            0      0.00%     80.94% # Number of instructions issued per FU type, per thread (Count)
system.cpu.statIssuedInstType_0::FloatDiv            0      0.00%     80.94% # Number of instructions issued per FU type, per thread (Count)
system.cpu.statIssuedInstType_0::FloatMisc            0      0.00%     80.94% # Number of instructions issued per FU type, per thread (Count)
system.cpu.statIssuedInstType_0::FloatSqrt            0      0.00%     80.94% # Number of instructions issued per FU type, per thread (Count)
system.cpu.statIssuedInstType_0::SimdAdd         7226      0.00%     80.94% # Number of instructions issued per FU type, per thread (Count)
system.cpu.statIssuedInstType_0::SimdAddAcc            0      0.00%     80.94% # Number of instructions issued per FU type, per thread (Count)
system.cpu.statIssuedInstType_0::SimdAlu      1720379      0.28%     81.22% # Number of instructions issued per FU type, per thread (Count)
system.cpu.statIssuedInstType_0::SimdCmp           17      0.00%     81.22% # Number of instructions issued per FU type, per thread (Count)
system.cpu.statIssuedInstType_0::SimdCvt       146835      0.02%     81.24% # Number of instructions issued per FU type, per thread (Count)
system.cpu.statIssuedInstType_0::SimdMisc       735968      0.12%     81.36% # Number of instructions issued per FU type, per thread (Count)
system.cpu.statIssuedInstType_0::SimdMult            0      0.00%     81.36% # Number of instructions issued per FU type, per thread (Count)
system.cpu.statIssuedInstType_0::SimdMultAcc            0      0.00%     81.36% # Number of instructions issued per FU type, per thread (Count)
system.cpu.statIssuedInstType_0::SimdMatMultAcc            0      0.00%     81.36% # Number of instructions issued per FU type, per thread (Count)
system.cpu.statIssuedInstType_0::SimdShift         3281      0.00%     81.36% # Number of instructions issued per FU type, per thread (Count)
system.cpu.statIssuedInstType_0::SimdShiftAcc            0      0.00%     81.36% # Number of instructions issued per FU type, per thread (Count)
system.cpu.statIssuedInstType_0::SimdDiv            0      0.00%     81.36% # Number of instructions issued per FU type, per thread (Count)
system.cpu.statIssuedInstType_0::SimdSqrt            0      0.00%     81.36% # Number of instructions issued per FU type, per thread (Count)
system.cpu.statIssuedInstType_0::SimdFloatAdd        65539      0.01%     81.37% # Number of instructions issued per FU type, per thread (Count)
system.cpu.statIssuedInstType_0::SimdFloatAlu            0      0.00%     81.37% # Number of instructions issued per FU type, per thread (Count)
system.cpu.statIssuedInstType_0::SimdFloatCmp            0      0.00%     81.37% # Number of instructions issued per FU type, per thread (Count)
system.cpu.statIssuedInstType_0::SimdFloatCvt     13945546      2.24%     83.61% # Number of instructions issued per FU type, per thread (Count)
system.cpu.statIssuedInstType_0::SimdFloatDiv           16      0.00%     83.61% # Number of instructions issued per FU type, per thread (Count)
system.cpu.statIssuedInstType_0::SimdFloatMisc            0      0.00%     83.61% # Number of instructions issued per FU type, per thread (Count)
system.cpu.statIssuedInstType_0::SimdFloatMult            0      0.00%     83.61% # Number of instructions issued per FU type, per thread (Count)
system.cpu.statIssuedInstType_0::SimdFloatMultAcc            0      0.00%     83.61% # Number of instructions issued per FU type, per thread (Count)
system.cpu.statIssuedInstType_0::SimdFloatMatMultAcc            0      0.00%     83.61% # Number of instructions issued per FU type, per thread (Count)
system.cpu.statIssuedInstType_0::SimdFloatSqrt            2      0.00%     83.61% # Number of instructions issued per FU type, per thread (Count)
system.cpu.statIssuedInstType_0::SimdReduceAdd            0      0.00%     83.61% # Number of instructions issued per FU type, per thread (Count)
system.cpu.statIssuedInstType_0::SimdReduceAlu            0      0.00%     83.61% # Number of instructions issued per FU type, per thread (Count)
system.cpu.statIssuedInstType_0::SimdReduceCmp            0      0.00%     83.61% # Number of instructions issued per FU type, per thread (Count)
system.cpu.statIssuedInstType_0::SimdFloatReduceAdd            0      0.00%     83.61% # Number of instructions issued per FU type, per thread (Count)
system.cpu.statIssuedInstType_0::SimdFloatReduceCmp            0      0.00%     83.61% # Number of instructions issued per FU type, per thread (Count)
system.cpu.statIssuedInstType_0::SimdAes            0      0.00%     83.61% # Number of instructions issued per FU type, per thread (Count)
system.cpu.statIssuedInstType_0::SimdAesMix            0      0.00%     83.61% # Number of instructions issued per FU type, per thread (Count)
system.cpu.statIssuedInstType_0::SimdSha1Hash            0      0.00%     83.61% # Number of instructions issued per FU type, per thread (Count)
system.cpu.statIssuedInstType_0::SimdSha1Hash2            0      0.00%     83.61% # Number of instructions issued per FU type, per thread (Count)
system.cpu.statIssuedInstType_0::SimdSha256Hash            0      0.00%     83.61% # Number of instructions issued per FU type, per thread (Count)
system.cpu.statIssuedInstType_0::SimdSha256Hash2            0      0.00%     83.61% # Number of instructions issued per FU type, per thread (Count)
system.cpu.statIssuedInstType_0::SimdShaSigma2            0      0.00%     83.61% # Number of instructions issued per FU type, per thread (Count)
system.cpu.statIssuedInstType_0::SimdShaSigma3            0      0.00%     83.61% # Number of instructions issued per FU type, per thread (Count)
system.cpu.statIssuedInstType_0::SimdPredAlu            0      0.00%     83.61% # Number of instructions issued per FU type, per thread (Count)
system.cpu.statIssuedInstType_0::Matrix             0      0.00%     83.61% # Number of instructions issued per FU type, per thread (Count)
system.cpu.statIssuedInstType_0::MatrixMov            0      0.00%     83.61% # Number of instructions issued per FU type, per thread (Count)
system.cpu.statIssuedInstType_0::MatrixOP            0      0.00%     83.61% # Number of instructions issued per FU type, per thread (Count)
system.cpu.statIssuedInstType_0::MemRead     54313708      8.72%     92.33% # Number of instructions issued per FU type, per thread (Count)
system.cpu.statIssuedInstType_0::MemWrite     16838226      2.70%     95.03% # Number of instructions issued per FU type, per thread (Count)
system.cpu.statIssuedInstType_0::FloatMemRead     20507468      3.29%     98.33% # Number of instructions issued per FU type, per thread (Count)
system.cpu.statIssuedInstType_0::FloatMemWrite     10429896      1.67%    100.00% # Number of instructions issued per FU type, per thread (Count)
system.cpu.statIssuedInstType_0::IprAccess            0      0.00%    100.00% # Number of instructions issued per FU type, per thread (Count)
system.cpu.statIssuedInstType_0::InstPrefetch            0      0.00%    100.00% # Number of instructions issued per FU type, per thread (Count)
system.cpu.statIssuedInstType_0::SimdUnitStrideLoad            0      0.00%    100.00% # Number of instructions issued per FU type, per thread (Count)
system.cpu.statIssuedInstType_0::SimdUnitStrideStore            0      0.00%    100.00% # Number of instructions issued per FU type, per thread (Count)
system.cpu.statIssuedInstType_0::SimdUnitStrideMaskLoad            0      0.00%    100.00% # Number of instructions issued per FU type, per thread (Count)
system.cpu.statIssuedInstType_0::SimdUnitStrideMaskStore            0      0.00%    100.00% # Number of instructions issued per FU type, per thread (Count)
system.cpu.statIssuedInstType_0::SimdStridedLoad            0      0.00%    100.00% # Number of instructions issued per FU type, per thread (Count)
system.cpu.statIssuedInstType_0::SimdStridedStore            0      0.00%    100.00% # Number of instructions issued per FU type, per thread (Count)
system.cpu.statIssuedInstType_0::SimdIndexedLoad            0      0.00%    100.00% # Number of instructions issued per FU type, per thread (Count)
system.cpu.statIssuedInstType_0::SimdIndexedStore            0      0.00%    100.00% # Number of instructions issued per FU type, per thread (Count)
system.cpu.statIssuedInstType_0::SimdWholeRegisterLoad            0      0.00%    100.00% # Number of instructions issued per FU type, per thread (Count)
system.cpu.statIssuedInstType_0::SimdWholeRegisterStore            0      0.00%    100.00% # Number of instructions issued per FU type, per thread (Count)
system.cpu.statIssuedInstType_0::SimdUnitStrideFaultOnlyFirstLoad            0      0.00%    100.00% # Number of instructions issued per FU type, per thread (Count)
system.cpu.statIssuedInstType_0::SimdUnitStrideSegmentedLoad            0      0.00%    100.00% # Number of instructions issued per FU type, per thread (Count)
system.cpu.statIssuedInstType_0::SimdUnitStrideSegmentedStore            0      0.00%    100.00% # Number of instructions issued per FU type, per thread (Count)
system.cpu.statIssuedInstType_0::SimdExt            0      0.00%    100.00% # Number of instructions issued per FU type, per thread (Count)
system.cpu.statIssuedInstType_0::SimdFloatExt            0      0.00%    100.00% # Number of instructions issued per FU type, per thread (Count)
system.cpu.statIssuedInstType_0::SimdConfig            0      0.00%    100.00% # Number of instructions issued per FU type, per thread (Count)
system.cpu.statIssuedInstType_0::total      622877791                       # Number of instructions issued per FU type, per thread (Count)
system.cpu.issueRate                         2.725652                       # Inst issue rate ((Count/Cycle))
system.cpu.fuBusy                            21657551                       # FU busy when requested (Count)
system.cpu.fuBusyRate                        0.034770                       # FU busy rate (busy events/executed inst) ((Count/Count))
system.cpu.intInstQueueReads               1377601309                       # Number of integer instruction queue reads (Count)
system.cpu.intInstQueueWrites               752323255                       # Number of integer instruction queue writes (Count)
system.cpu.intInstQueueWakeupAccesses       553502923                       # Number of integer instruction queue wakeup accesses (Count)
system.cpu.fpInstQueueReads                 120031708                       # Number of floating instruction queue reads (Count)
system.cpu.fpInstQueueWrites                 98558845                       # Number of floating instruction queue writes (Count)
system.cpu.fpInstQueueWakeupAccesses         54282134                       # Number of floating instruction queue wakeup accesses (Count)
system.cpu.vecInstQueueReads                        0                       # Number of vector instruction queue reads (Count)
system.cpu.vecInstQueueWrites                       0                       # Number of vector instruction queue writes (Count)
system.cpu.vecInstQueueWakeupAccesses               0                       # Number of vector instruction queue wakeup accesses (Count)
system.cpu.intAluAccesses                   580961123                       # Number of integer alu accesses (Count)
system.cpu.fpAluAccesses                     60641320                       # Number of floating point alu accesses (Count)
system.cpu.vecAluAccesses                           0                       # Number of vector alu accesses (Count)
system.cpu.numSquashedInsts                   9034770                       # Number of squashed instructions skipped in execute (Count)
system.cpu.numSwp                                   0                       # Number of swp insts executed (Count)
system.cpu.timesIdled                          178039                       # Number of times that the entire CPU went into an idle state and unscheduled itself (Count)
system.cpu.idleCycles                         1348827                       # Total number of cycles that the CPU has spent unscheduled due to idling (Cycle)
system.cpu.MemDepUnit__0.insertedLoads       81495118                       # Number of loads inserted to the mem dependence unit. (Count)
system.cpu.MemDepUnit__0.insertedStores      33850255                       # Number of stores inserted to the mem dependence unit. (Count)
system.cpu.MemDepUnit__0.conflictingLoads      8779908                       # Number of conflicting loads. (Count)
system.cpu.MemDepUnit__0.conflictingStores      7588667                       # Number of conflicting stores. (Count)
system.cpu.MemDepUnit__1.insertedLoads              0                       # Number of loads inserted to the mem dependence unit. (Count)
system.cpu.MemDepUnit__1.insertedStores             0                       # Number of stores inserted to the mem dependence unit. (Count)
system.cpu.MemDepUnit__1.conflictingLoads            0                       # Number of conflicting loads. (Count)
system.cpu.MemDepUnit__1.conflictingStores            0                       # Number of conflicting stores. (Count)
system.cpu.MemDepUnit__2.insertedLoads              0                       # Number of loads inserted to the mem dependence unit. (Count)
system.cpu.MemDepUnit__2.insertedStores             0                       # Number of stores inserted to the mem dependence unit. (Count)
system.cpu.MemDepUnit__2.conflictingLoads            0                       # Number of conflicting loads. (Count)
system.cpu.MemDepUnit__2.conflictingStores            0                       # Number of conflicting stores. (Count)
system.cpu.MemDepUnit__3.insertedLoads              0                       # Number of loads inserted to the mem dependence unit. (Count)
system.cpu.MemDepUnit__3.insertedStores             0                       # Number of stores inserted to the mem dependence unit. (Count)
system.cpu.MemDepUnit__3.conflictingLoads            0                       # Number of conflicting loads. (Count)
system.cpu.MemDepUnit__3.conflictingStores            0                       # Number of conflicting stores. (Count)
system.cpu.branchPred.lookups_0::NoBranch         2073      0.00%      0.00% # Number of BP lookups (Count)
system.cpu.branchPred.lookups_0::Return        937465      0.88%      0.88% # Number of BP lookups (Count)
system.cpu.branchPred.lookups_0::CallDirect       922165      0.86%      1.74% # Number of BP lookups (Count)
system.cpu.branchPred.lookups_0::CallIndirect         1334      0.00%      1.74% # Number of BP lookups (Count)
system.cpu.branchPred.lookups_0::DirectCond     94349237     88.22%     89.97% # Number of BP lookups (Count)
system.cpu.branchPred.lookups_0::DirectUncond     10215713      9.55%     99.52% # Number of BP lookups (Count)
system.cpu.branchPred.lookups_0::IndirectCond            0      0.00%     99.52% # Number of BP lookups (Count)
system.cpu.branchPred.lookups_0::IndirectUncond       515423      0.48%    100.00% # Number of BP lookups (Count)
system.cpu.branchPred.lookups_0::total      106943410                       # Number of BP lookups (Count)
system.cpu.branchPred.squashes_0::NoBranch         1839      0.00%      0.00% # Number of branches that got squashed (completely removed) as an earlier branch was mispredicted. (Count)
system.cpu.branchPred.squashes_0::Return        78116      0.20%      0.21% # Number of branches that got squashed (completely removed) as an earlier branch was mispredicted. (Count)
system.cpu.branchPred.squashes_0::CallDirect        63433      0.17%      0.37% # Number of branches that got squashed (completely removed) as an earlier branch was mispredicted. (Count)
system.cpu.branchPred.squashes_0::CallIndirect          712      0.00%      0.38% # Number of branches that got squashed (completely removed) as an earlier branch was mispredicted. (Count)
system.cpu.branchPred.squashes_0::DirectCond     33774712     88.32%     88.70% # Number of branches that got squashed (completely removed) as an earlier branch was mispredicted. (Count)
system.cpu.branchPred.squashes_0::DirectUncond      4313525     11.28%     99.98% # Number of branches that got squashed (completely removed) as an earlier branch was mispredicted. (Count)
system.cpu.branchPred.squashes_0::IndirectCond            0      0.00%     99.98% # Number of branches that got squashed (completely removed) as an earlier branch was mispredicted. (Count)
system.cpu.branchPred.squashes_0::IndirectUncond         7804      0.02%    100.00% # Number of branches that got squashed (completely removed) as an earlier branch was mispredicted. (Count)
system.cpu.branchPred.squashes_0::total      38240141                       # Number of branches that got squashed (completely removed) as an earlier branch was mispredicted. (Count)
system.cpu.branchPred.corrected_0::NoBranch          387      0.01%      0.01% # Number of branches that got corrected but not yet commited. Branches get corrected by decode or after execute. Also a branch misprediction can be detected out-of-order. Therefore, a corrected branch might not end up beeing committed in case an even earlier branch was mispredicted (Count)
system.cpu.branchPred.corrected_0::Return           22      0.00%      0.01% # Number of branches that got corrected but not yet commited. Branches get corrected by decode or after execute. Also a branch misprediction can be detected out-of-order. Therefore, a corrected branch might not end up beeing committed in case an even earlier branch was mispredicted (Count)
system.cpu.branchPred.corrected_0::CallDirect         1090      0.04%      0.05% # Number of branches that got corrected but not yet commited. Branches get corrected by decode or after execute. Also a branch misprediction can be detected out-of-order. Therefore, a corrected branch might not end up beeing committed in case an even earlier branch was mispredicted (Count)
system.cpu.branchPred.corrected_0::CallIndirect          256      0.01%      0.06% # Number of branches that got corrected but not yet commited. Branches get corrected by decode or after execute. Also a branch misprediction can be detected out-of-order. Therefore, a corrected branch might not end up beeing committed in case an even earlier branch was mispredicted (Count)
system.cpu.branchPred.corrected_0::DirectCond      3085275     99.87%     99.93% # Number of branches that got corrected but not yet commited. Branches get corrected by decode or after execute. Also a branch misprediction can be detected out-of-order. Therefore, a corrected branch might not end up beeing committed in case an even earlier branch was mispredicted (Count)
system.cpu.branchPred.corrected_0::DirectUncond          764      0.02%     99.96% # Number of branches that got corrected but not yet commited. Branches get corrected by decode or after execute. Also a branch misprediction can be detected out-of-order. Therefore, a corrected branch might not end up beeing committed in case an even earlier branch was mispredicted (Count)
system.cpu.branchPred.corrected_0::IndirectCond            0      0.00%     99.96% # Number of branches that got corrected but not yet commited. Branches get corrected by decode or after execute. Also a branch misprediction can be detected out-of-order. Therefore, a corrected branch might not end up beeing committed in case an even earlier branch was mispredicted (Count)
system.cpu.branchPred.corrected_0::IndirectUncond         1361      0.04%    100.00% # Number of branches that got corrected but not yet commited. Branches get corrected by decode or after execute. Also a branch misprediction can be detected out-of-order. Therefore, a corrected branch might not end up beeing committed in case an even earlier branch was mispredicted (Count)
system.cpu.branchPred.corrected_0::total      3089155                       # Number of branches that got corrected but not yet commited. Branches get corrected by decode or after execute. Also a branch misprediction can be detected out-of-order. Therefore, a corrected branch might not end up beeing committed in case an even earlier branch was mispredicted (Count)
system.cpu.branchPred.earlyResteers_0::NoBranch            0                       # Number of branches that got redirected after decode. (Count)
system.cpu.branchPred.earlyResteers_0::Return            0                       # Number of branches that got redirected after decode. (Count)
system.cpu.branchPred.earlyResteers_0::CallDirect            0                       # Number of branches that got redirected after decode. (Count)
system.cpu.branchPred.earlyResteers_0::CallIndirect            0                       # Number of branches that got redirected after decode. (Count)
system.cpu.branchPred.earlyResteers_0::DirectCond            0                       # Number of branches that got redirected after decode. (Count)
system.cpu.branchPred.earlyResteers_0::DirectUncond            0                       # Number of branches that got redirected after decode. (Count)
system.cpu.branchPred.earlyResteers_0::IndirectCond            0                       # Number of branches that got redirected after decode. (Count)
system.cpu.branchPred.earlyResteers_0::IndirectUncond            0                       # Number of branches that got redirected after decode. (Count)
system.cpu.branchPred.earlyResteers_0::total            0                       # Number of branches that got redirected after decode. (Count)
system.cpu.branchPred.committed_0::NoBranch          234      0.00%      0.00% # Number of branches finally committed  (Count)
system.cpu.branchPred.committed_0::Return       859348      1.25%      1.25% # Number of branches finally committed  (Count)
system.cpu.branchPred.committed_0::CallDirect       858731      1.25%      2.50% # Number of branches finally committed  (Count)
system.cpu.branchPred.committed_0::CallIndirect          622      0.00%      2.50% # Number of branches finally committed  (Count)
system.cpu.branchPred.committed_0::DirectCond     60574525     88.17%     90.67% # Number of branches finally committed  (Count)
system.cpu.branchPred.committed_0::DirectUncond      5902188      8.59%     99.26% # Number of branches finally committed  (Count)
system.cpu.branchPred.committed_0::IndirectCond            0      0.00%     99.26% # Number of branches finally committed  (Count)
system.cpu.branchPred.committed_0::IndirectUncond       507619      0.74%    100.00% # Number of branches finally committed  (Count)
system.cpu.branchPred.committed_0::total     68703267                       # Number of branches finally committed  (Count)
system.cpu.branchPred.mispredicted_0::NoBranch          234      0.01%      0.01% # Number of committed branches that were mispredicted. (Count)
system.cpu.branchPred.mispredicted_0::Return            8      0.00%      0.01% # Number of committed branches that were mispredicted. (Count)
system.cpu.branchPred.mispredicted_0::CallDirect          589      0.02%      0.03% # Number of committed branches that were mispredicted. (Count)
system.cpu.branchPred.mispredicted_0::CallIndirect          227      0.01%      0.04% # Number of committed branches that were mispredicted. (Count)
system.cpu.branchPred.mispredicted_0::DirectCond      2938665     99.91%     99.94% # Number of committed branches that were mispredicted. (Count)
system.cpu.branchPred.mispredicted_0::DirectUncond          435      0.01%     99.96% # Number of committed branches that were mispredicted. (Count)
system.cpu.branchPred.mispredicted_0::IndirectCond            0      0.00%     99.96% # Number of committed branches that were mispredicted. (Count)
system.cpu.branchPred.mispredicted_0::IndirectUncond         1277      0.04%    100.00% # Number of committed branches that were mispredicted. (Count)
system.cpu.branchPred.mispredicted_0::total      2941435                       # Number of committed branches that were mispredicted. (Count)
system.cpu.branchPred.targetProvider_0::NoTarget     51437482     48.10%     48.10% # The component providing the target for taken branches (Count)
system.cpu.branchPred.targetProvider_0::BTB     54060280     50.55%     98.65% # The component providing the target for taken branches (Count)
system.cpu.branchPred.targetProvider_0::RAS       937464      0.88%     99.52% # The component providing the target for taken branches (Count)
system.cpu.branchPred.targetProvider_0::Indirect       508184      0.48%    100.00% # The component providing the target for taken branches (Count)
system.cpu.branchPred.targetProvider_0::total    106943410                       # The component providing the target for taken branches (Count)
system.cpu.branchPred.targetWrong_0::NoBranch      1462399     48.36%     48.36% # Number of branches where the target was incorrect or not available at prediction time. (Count)
system.cpu.branchPred.targetWrong_0::Return      1561507     51.64%     99.99% # Number of branches where the target was incorrect or not available at prediction time. (Count)
system.cpu.branchPred.targetWrong_0::CallDirect           22      0.00%     99.99% # Number of branches where the target was incorrect or not available at prediction time. (Count)
system.cpu.branchPred.targetWrong_0::CallIndirect          153      0.01%    100.00% # Number of branches where the target was incorrect or not available at prediction time. (Count)
system.cpu.branchPred.targetWrong_0::DirectCond            0      0.00%    100.00% # Number of branches where the target was incorrect or not available at prediction time. (Count)
system.cpu.branchPred.targetWrong_0::DirectUncond            0      0.00%    100.00% # Number of branches where the target was incorrect or not available at prediction time. (Count)
system.cpu.branchPred.targetWrong_0::IndirectCond            0      0.00%    100.00% # Number of branches where the target was incorrect or not available at prediction time. (Count)
system.cpu.branchPred.targetWrong_0::IndirectUncond            0      0.00%    100.00% # Number of branches where the target was incorrect or not available at prediction time. (Count)
system.cpu.branchPred.targetWrong_0::total      3024081                       # Number of branches where the target was incorrect or not available at prediction time. (Count)
system.cpu.branchPred.condPredicted          94351310                       # Number of conditional branches predicted (Count)
system.cpu.branchPred.condPredictedTaken     42930109                       # Number of conditional branches predicted as taken (Count)
system.cpu.branchPred.condIncorrect           3089155                       # Number of conditional branches incorrect (Count)
system.cpu.branchPred.predTakenBTBMiss           2203                       # Number of branches predicted taken but missed in BTB (Count)
system.cpu.branchPred.NotTakenMispredicted      1468478                       # Number branches predicted 'not taken' but turned out to be taken (Count)
system.cpu.branchPred.TakenMispredicted       1620677                       # Number branches predicted taken but are actually not taken (Count)
system.cpu.branchPred.BTBLookups            106943410                       # Number of BTB lookups (Count)
system.cpu.branchPred.BTBUpdates              1466452                       # Number of BTB updates (Count)
system.cpu.branchPred.BTBHits                79842215                       # Number of BTB hits (Count)
system.cpu.branchPred.BTBHitRatio            0.746584                       # BTB Hit Ratio (Ratio)
system.cpu.branchPred.BTBMispredicted            3257                       # Number BTB mispredictions. No target found or target wrong (Count)
system.cpu.branchPred.indirectLookups          516757                       # Number of indirect predictor lookups. (Count)
system.cpu.branchPred.indirectHits             508184                       # Number of indirect target hits. (Count)
system.cpu.branchPred.indirectMisses             8573                       # Number of indirect misses. (Count)
system.cpu.branchPred.indirectMispredicted            0                       # Number of mispredicted indirect branches. (Count)
system.cpu.branchPred.btb.lookups::NoBranch         2073      0.00%      0.00% # Number of BTB lookups (Count)
system.cpu.branchPred.btb.lookups::Return       937465      0.88%      0.88% # Number of BTB lookups (Count)
system.cpu.branchPred.btb.lookups::CallDirect       922165      0.86%      1.74% # Number of BTB lookups (Count)
system.cpu.branchPred.btb.lookups::CallIndirect         1334      0.00%      1.74% # Number of BTB lookups (Count)
system.cpu.branchPred.btb.lookups::DirectCond     94349237     88.22%     89.97% # Number of BTB lookups (Count)
system.cpu.branchPred.btb.lookups::DirectUncond     10215713      9.55%     99.52% # Number of BTB lookups (Count)
system.cpu.branchPred.btb.lookups::IndirectCond            0      0.00%     99.52% # Number of BTB lookups (Count)
system.cpu.branchPred.btb.lookups::IndirectUncond       515423      0.48%    100.00% # Number of BTB lookups (Count)
system.cpu.branchPred.btb.lookups::total    106943410                       # Number of BTB lookups (Count)
system.cpu.branchPred.btb.misses::NoBranch          387      0.00%      0.00% # Number of BTB misses (Count)
system.cpu.branchPred.btb.misses::Return       937465      3.46%      3.46% # Number of BTB misses (Count)
system.cpu.branchPred.btb.misses::CallDirect         1579      0.01%      3.47% # Number of BTB misses (Count)
system.cpu.branchPred.btb.misses::CallIndirect         1334      0.00%      3.47% # Number of BTB misses (Count)
system.cpu.branchPred.btb.misses::DirectCond     25643840     94.62%     98.09% # Number of BTB misses (Count)
system.cpu.branchPred.btb.misses::DirectUncond         1167      0.00%     98.10% # Number of BTB misses (Count)
system.cpu.branchPred.btb.misses::IndirectCond            0      0.00%     98.10% # Number of BTB misses (Count)
system.cpu.branchPred.btb.misses::IndirectUncond       515423      1.90%    100.00% # Number of BTB misses (Count)
system.cpu.branchPred.btb.misses::total      27101195                       # Number of BTB misses (Count)
system.cpu.branchPred.btb.updates::NoBranch            0      0.00%      0.00% # Number of BTB updates (Count)
system.cpu.branchPred.btb.updates::Return            0      0.00%      0.00% # Number of BTB updates (Count)
system.cpu.branchPred.btb.updates::CallDirect         1090      0.07%      0.07% # Number of BTB updates (Count)
system.cpu.branchPred.btb.updates::CallIndirect            0      0.00%      0.07% # Number of BTB updates (Count)
system.cpu.branchPred.btb.updates::DirectCond      1464598     99.87%     99.95% # Number of BTB updates (Count)
system.cpu.branchPred.btb.updates::DirectUncond          764      0.05%    100.00% # Number of BTB updates (Count)
system.cpu.branchPred.btb.updates::IndirectCond            0      0.00%    100.00% # Number of BTB updates (Count)
system.cpu.branchPred.btb.updates::IndirectUncond            0      0.00%    100.00% # Number of BTB updates (Count)
system.cpu.branchPred.btb.updates::total      1466452                       # Number of BTB updates (Count)
system.cpu.branchPred.btb.mispredict::NoBranch            0      0.00%      0.00% # Number of BTB mispredictions. No target found or target wrong. (Count)
system.cpu.branchPred.btb.mispredict::Return            0      0.00%      0.00% # Number of BTB mispredictions. No target found or target wrong. (Count)
system.cpu.branchPred.btb.mispredict::CallDirect         1090      0.07%      0.07% # Number of BTB mispredictions. No target found or target wrong. (Count)
system.cpu.branchPred.btb.mispredict::CallIndirect            0      0.00%      0.07% # Number of BTB mispredictions. No target found or target wrong. (Count)
system.cpu.branchPred.btb.mispredict::DirectCond      1464598     99.87%     99.95% # Number of BTB mispredictions. No target found or target wrong. (Count)
system.cpu.branchPred.btb.mispredict::DirectUncond          764      0.05%    100.00% # Number of BTB mispredictions. No target found or target wrong. (Count)
system.cpu.branchPred.btb.mispredict::IndirectCond            0      0.00%    100.00% # Number of BTB mispredictions. No target found or target wrong. (Count)
system.cpu.branchPred.btb.mispredict::IndirectUncond            0      0.00%    100.00% # Number of BTB mispredictions. No target found or target wrong. (Count)
system.cpu.branchPred.btb.mispredict::total      1466452                       # Number of BTB mispredictions. No target found or target wrong. (Count)
system.cpu.branchPred.btb.power_state.pwrStateResidencyTicks::UNDEFINED 3046914665229                       # Cumulative time (in ticks) in various power states (Tick)
system.cpu.branchPred.indirectBranchPred.lookups       516757                       # Number of lookups (Count)
system.cpu.branchPred.indirectBranchPred.hits       508184                       # Number of hits of a tag (Count)
system.cpu.branchPred.indirectBranchPred.misses         8573                       # Number of misses (Count)
system.cpu.branchPred.indirectBranchPred.targetRecords         1617                       # Number of targets that where recorded/installed in the cache (Count)
system.cpu.branchPred.indirectBranchPred.indirectRecords       518374                       # Number of indirect branches/calls recorded in the indirect hist (Count)
system.cpu.branchPred.indirectBranchPred.speculativeOverflows            1                       # Number of times more than the allowed capacity for speculative branches/calls where in flight and destroy the path history (Count)
system.cpu.branchPred.ras.pushes              1001615                       # Number of times a PC was pushed onto the RAS (Count)
system.cpu.branchPred.ras.pops                1001610                       # Number of times a PC was poped from the RAS (Count)
system.cpu.branchPred.ras.squashes             142261                       # Number of times the stack operation was squashed due to wrong speculation. (Count)
system.cpu.branchPred.ras.used                 859348                       # Number of times the RAS is the provider (Count)
system.cpu.branchPred.ras.correct              859340                       # Number of times the RAS is the provider and the prediction is correct (Count)
system.cpu.branchPred.ras.incorrect                 8                       # Number of times the RAS is the provider and the prediction is wrong (Count)
system.cpu.commit.commitSquashedInsts       174543679                       # The number of squashed insts skipped by commit (Count)
system.cpu.commit.commitNonSpecStalls            3048                       # The number of times commit has been forced to stall to communicate backwards (Count)
system.cpu.commit.branchMispredicts           3087348                       # The number of times a branch was mispredicted (Count)
system.cpu.commit.numCommittedDist::samples    203153580                       # Number of insts commited each cycle (Count)
system.cpu.commit.numCommittedDist::mean     2.469129                       # Number of insts commited each cycle (Count)
system.cpu.commit.numCommittedDist::stdev     2.991055                       # Number of insts commited each cycle (Count)
system.cpu.commit.numCommittedDist::underflows            0      0.00%      0.00% # Number of insts commited each cycle (Count)
system.cpu.commit.numCommittedDist::0        91068173     44.83%     44.83% # Number of insts commited each cycle (Count)
system.cpu.commit.numCommittedDist::1        20987526     10.33%     55.16% # Number of insts commited each cycle (Count)
system.cpu.commit.numCommittedDist::2        11264151      5.54%     60.70% # Number of insts commited each cycle (Count)
system.cpu.commit.numCommittedDist::3        20864322     10.27%     70.97% # Number of insts commited each cycle (Count)
system.cpu.commit.numCommittedDist::4         9867003      4.86%     75.83% # Number of insts commited each cycle (Count)
system.cpu.commit.numCommittedDist::5         6903289      3.40%     79.23% # Number of insts commited each cycle (Count)
system.cpu.commit.numCommittedDist::6         6063090      2.98%     82.21% # Number of insts commited each cycle (Count)
system.cpu.commit.numCommittedDist::7         3947581      1.94%     84.16% # Number of insts commited each cycle (Count)
system.cpu.commit.numCommittedDist::8        32188445     15.84%    100.00% # Number of insts commited each cycle (Count)
system.cpu.commit.numCommittedDist::overflows            0      0.00%    100.00% # Number of insts commited each cycle (Count)
system.cpu.commit.numCommittedDist::min_value            0                       # Number of insts commited each cycle (Count)
system.cpu.commit.numCommittedDist::max_value            8                       # Number of insts commited each cycle (Count)
system.cpu.commit.numCommittedDist::total    203153580                       # Number of insts commited each cycle (Count)
system.cpu.commit.amos                              0                       # Number of atomic instructions committed (Count)
system.cpu.commit.membars                        1388                       # Number of memory barriers committed (Count)
system.cpu.commit.functionCalls                859353                       # Number of function calls committed. (Count)
system.cpu.commit.committedInstType_0::No_OpClass      2216270      0.44%      0.44% # Class of committed instruction (Count)
system.cpu.commit.committedInstType_0::IntAlu    398331191     79.41%     79.85% # Class of committed instruction (Count)
system.cpu.commit.committedInstType_0::IntMult       798339      0.16%     80.01% # Class of committed instruction (Count)
system.cpu.commit.committedInstType_0::IntDiv      2332042      0.46%     80.48% # Class of committed instruction (Count)
system.cpu.commit.committedInstType_0::FloatAdd      6457681      1.29%     81.76% # Class of committed instruction (Count)
system.cpu.commit.committedInstType_0::FloatCmp            0      0.00%     81.76% # Class of committed instruction (Count)
system.cpu.commit.committedInstType_0::FloatCvt         1632      0.00%     81.76% # Class of committed instruction (Count)
system.cpu.commit.committedInstType_0::FloatMult            0      0.00%     81.76% # Class of committed instruction (Count)
system.cpu.commit.committedInstType_0::FloatMultAcc            0      0.00%     81.76% # Class of committed instruction (Count)
system.cpu.commit.committedInstType_0::FloatDiv            0      0.00%     81.76% # Class of committed instruction (Count)
system.cpu.commit.committedInstType_0::FloatMisc            0      0.00%     81.76% # Class of committed instruction (Count)
system.cpu.commit.committedInstType_0::FloatSqrt            0      0.00%     81.76% # Class of committed instruction (Count)
system.cpu.commit.committedInstType_0::SimdAdd         6536      0.00%     81.77% # Class of committed instruction (Count)
system.cpu.commit.committedInstType_0::SimdAddAcc            0      0.00%     81.77% # Class of committed instruction (Count)
system.cpu.commit.committedInstType_0::SimdAlu      1717230      0.34%     82.11% # Class of committed instruction (Count)
system.cpu.commit.committedInstType_0::SimdCmp           12      0.00%     82.11% # Class of committed instruction (Count)
system.cpu.commit.committedInstType_0::SimdCvt       144696      0.03%     82.14% # Class of committed instruction (Count)
system.cpu.commit.committedInstType_0::SimdMisc       734682      0.15%     82.28% # Class of committed instruction (Count)
system.cpu.commit.committedInstType_0::SimdMult            0      0.00%     82.28% # Class of committed instruction (Count)
system.cpu.commit.committedInstType_0::SimdMultAcc            0      0.00%     82.28% # Class of committed instruction (Count)
system.cpu.commit.committedInstType_0::SimdMatMultAcc            0      0.00%     82.28% # Class of committed instruction (Count)
system.cpu.commit.committedInstType_0::SimdShift         1560      0.00%     82.28% # Class of committed instruction (Count)
system.cpu.commit.committedInstType_0::SimdShiftAcc            0      0.00%     82.28% # Class of committed instruction (Count)
system.cpu.commit.committedInstType_0::SimdDiv            0      0.00%     82.28% # Class of committed instruction (Count)
system.cpu.commit.committedInstType_0::SimdSqrt            0      0.00%     82.28% # Class of committed instruction (Count)
system.cpu.commit.committedInstType_0::SimdFloatAdd        65533      0.01%     82.30% # Class of committed instruction (Count)
system.cpu.commit.committedInstType_0::SimdFloatAlu            0      0.00%     82.30% # Class of committed instruction (Count)
system.cpu.commit.committedInstType_0::SimdFloatCmp            0      0.00%     82.30% # Class of committed instruction (Count)
system.cpu.commit.committedInstType_0::SimdFloatCvt     10480972      2.09%     84.39% # Class of committed instruction (Count)
system.cpu.commit.committedInstType_0::SimdFloatDiv           10      0.00%     84.39% # Class of committed instruction (Count)
system.cpu.commit.committedInstType_0::SimdFloatMisc            0      0.00%     84.39% # Class of committed instruction (Count)
system.cpu.commit.committedInstType_0::SimdFloatMult            0      0.00%     84.39% # Class of committed instruction (Count)
system.cpu.commit.committedInstType_0::SimdFloatMultAcc            0      0.00%     84.39% # Class of committed instruction (Count)
system.cpu.commit.committedInstType_0::SimdFloatMatMultAcc            0      0.00%     84.39% # Class of committed instruction (Count)
system.cpu.commit.committedInstType_0::SimdFloatSqrt            2      0.00%     84.39% # Class of committed instruction (Count)
system.cpu.commit.committedInstType_0::SimdReduceAdd            0      0.00%     84.39% # Class of committed instruction (Count)
system.cpu.commit.committedInstType_0::SimdReduceAlu            0      0.00%     84.39% # Class of committed instruction (Count)
system.cpu.commit.committedInstType_0::SimdReduceCmp            0      0.00%     84.39% # Class of committed instruction (Count)
system.cpu.commit.committedInstType_0::SimdFloatReduceAdd            0      0.00%     84.39% # Class of committed instruction (Count)
system.cpu.commit.committedInstType_0::SimdFloatReduceCmp            0      0.00%     84.39% # Class of committed instruction (Count)
system.cpu.commit.committedInstType_0::SimdAes            0      0.00%     84.39% # Class of committed instruction (Count)
system.cpu.commit.committedInstType_0::SimdAesMix            0      0.00%     84.39% # Class of committed instruction (Count)
system.cpu.commit.committedInstType_0::SimdSha1Hash            0      0.00%     84.39% # Class of committed instruction (Count)
system.cpu.commit.committedInstType_0::SimdSha1Hash2            0      0.00%     84.39% # Class of committed instruction (Count)
system.cpu.commit.committedInstType_0::SimdSha256Hash            0      0.00%     84.39% # Class of committed instruction (Count)
system.cpu.commit.committedInstType_0::SimdSha256Hash2            0      0.00%     84.39% # Class of committed instruction (Count)
system.cpu.commit.committedInstType_0::SimdShaSigma2            0      0.00%     84.39% # Class of committed instruction (Count)
system.cpu.commit.committedInstType_0::SimdShaSigma3            0      0.00%     84.39% # Class of committed instruction (Count)
system.cpu.commit.committedInstType_0::SimdPredAlu            0      0.00%     84.39% # Class of committed instruction (Count)
system.cpu.commit.committedInstType_0::Matrix            0      0.00%     84.39% # Class of committed instruction (Count)
system.cpu.commit.committedInstType_0::MatrixMov            0      0.00%     84.39% # Class of committed instruction (Count)
system.cpu.commit.committedInstType_0::MatrixOP            0      0.00%     84.39% # Class of committed instruction (Count)
system.cpu.commit.committedInstType_0::MemRead     43403868      8.65%     93.04% # Class of committed instruction (Count)
system.cpu.commit.committedInstType_0::MemWrite     15133280      3.02%     96.06% # Class of committed instruction (Count)
system.cpu.commit.committedInstType_0::FloatMemRead     12057338      2.40%     98.46% # Class of committed instruction (Count)
system.cpu.commit.committedInstType_0::FloatMemWrite      7729544      1.54%    100.00% # Class of committed instruction (Count)
system.cpu.commit.committedInstType_0::IprAccess            0      0.00%    100.00% # Class of committed instruction (Count)
system.cpu.commit.committedInstType_0::InstPrefetch            0      0.00%    100.00% # Class of committed instruction (Count)
system.cpu.commit.committedInstType_0::SimdUnitStrideLoad            0      0.00%    100.00% # Class of committed instruction (Count)
system.cpu.commit.committedInstType_0::SimdUnitStrideStore            0      0.00%    100.00% # Class of committed instruction (Count)
system.cpu.commit.committedInstType_0::SimdUnitStrideMaskLoad            0      0.00%    100.00% # Class of committed instruction (Count)
system.cpu.commit.committedInstType_0::SimdUnitStrideMaskStore            0      0.00%    100.00% # Class of committed instruction (Count)
system.cpu.commit.committedInstType_0::SimdStridedLoad            0      0.00%    100.00% # Class of committed instruction (Count)
system.cpu.commit.committedInstType_0::SimdStridedStore            0      0.00%    100.00% # Class of committed instruction (Count)
system.cpu.commit.committedInstType_0::SimdIndexedLoad            0      0.00%    100.00% # Class of committed instruction (Count)
system.cpu.commit.committedInstType_0::SimdIndexedStore            0      0.00%    100.00% # Class of committed instruction (Count)
system.cpu.commit.committedInstType_0::SimdWholeRegisterLoad            0      0.00%    100.00% # Class of committed instruction (Count)
system.cpu.commit.committedInstType_0::SimdWholeRegisterStore            0      0.00%    100.00% # Class of committed instruction (Count)
system.cpu.commit.committedInstType_0::SimdUnitStrideFaultOnlyFirstLoad            0      0.00%    100.00% # Class of committed instruction (Count)
system.cpu.commit.committedInstType_0::SimdUnitStrideSegmentedLoad            0      0.00%    100.00% # Class of committed instruction (Count)
system.cpu.commit.committedInstType_0::SimdUnitStrideSegmentedStore            0      0.00%    100.00% # Class of committed instruction (Count)
system.cpu.commit.committedInstType_0::SimdExt            0      0.00%    100.00% # Class of committed instruction (Count)
system.cpu.commit.committedInstType_0::SimdFloatExt            0      0.00%    100.00% # Class of committed instruction (Count)
system.cpu.commit.committedInstType_0::SimdConfig            0      0.00%    100.00% # Class of committed instruction (Count)
system.cpu.commit.committedInstType_0::total    501612418                       # Class of committed instruction (Count)
system.cpu.commit.commitEligibleSamples      32188445                       # number cycles where commit BW limit reached (Cycle)
system.cpu.commitStats0.numInsts            265600382                       # Number of instructions committed (thread level) (Count)
system.cpu.commitStats0.numOps              501612418                       # Number of ops (including micro ops) committed (thread level) (Count)
system.cpu.commitStats0.numInstsNotNOP      265600382                       # Number of instructions committed excluding NOPs or prefetches (Count)
system.cpu.commitStats0.numOpsNotNOP        501612418                       # Number of Ops (including micro ops) Simulated (Count)
system.cpu.commitStats0.cpi                  0.860407                       # CPI: cycles per instruction (thread level) ((Cycle/Count))
system.cpu.commitStats0.ipc                  1.162241                       # IPC: instructions per cycle (thread level) ((Count/Cycle))
system.cpu.commitStats0.numMemRefs           78324030                       # Number of memory references committed (Count)
system.cpu.commitStats0.numFpInsts           39401367                       # Number of float instructions (Count)
system.cpu.commitStats0.numIntInsts         479521712                       # Number of integer instructions (Count)
system.cpu.commitStats0.numLoadInsts         55461206                       # Number of load instructions (Count)
system.cpu.commitStats0.numStoreInsts        22862824                       # Number of store instructions (Count)
system.cpu.commitStats0.numVecInsts                 0                       # Number of vector instructions (Count)
system.cpu.commitStats0.committedInstType::No_OpClass      2216270      0.44%      0.44% # Class of committed instruction. (Count)
system.cpu.commitStats0.committedInstType::IntAlu    398331191     79.41%     79.85% # Class of committed instruction. (Count)
system.cpu.commitStats0.committedInstType::IntMult       798339      0.16%     80.01% # Class of committed instruction. (Count)
system.cpu.commitStats0.committedInstType::IntDiv      2332042      0.46%     80.48% # Class of committed instruction. (Count)
system.cpu.commitStats0.committedInstType::FloatAdd      6457681      1.29%     81.76% # Class of committed instruction. (Count)
system.cpu.commitStats0.committedInstType::FloatCmp            0      0.00%     81.76% # Class of committed instruction. (Count)
system.cpu.commitStats0.committedInstType::FloatCvt         1632      0.00%     81.76% # Class of committed instruction. (Count)
system.cpu.commitStats0.committedInstType::FloatMult            0      0.00%     81.76% # Class of committed instruction. (Count)
system.cpu.commitStats0.committedInstType::FloatMultAcc            0      0.00%     81.76% # Class of committed instruction. (Count)
system.cpu.commitStats0.committedInstType::FloatDiv            0      0.00%     81.76% # Class of committed instruction. (Count)
system.cpu.commitStats0.committedInstType::FloatMisc            0      0.00%     81.76% # Class of committed instruction. (Count)
system.cpu.commitStats0.committedInstType::FloatSqrt            0      0.00%     81.76% # Class of committed instruction. (Count)
system.cpu.commitStats0.committedInstType::SimdAdd         6536      0.00%     81.77% # Class of committed instruction. (Count)
system.cpu.commitStats0.committedInstType::SimdAddAcc            0      0.00%     81.77% # Class of committed instruction. (Count)
system.cpu.commitStats0.committedInstType::SimdAlu      1717230      0.34%     82.11% # Class of committed instruction. (Count)
system.cpu.commitStats0.committedInstType::SimdCmp           12      0.00%     82.11% # Class of committed instruction. (Count)
system.cpu.commitStats0.committedInstType::SimdCvt       144696      0.03%     82.14% # Class of committed instruction. (Count)
system.cpu.commitStats0.committedInstType::SimdMisc       734682      0.15%     82.28% # Class of committed instruction. (Count)
system.cpu.commitStats0.committedInstType::SimdMult            0      0.00%     82.28% # Class of committed instruction. (Count)
system.cpu.commitStats0.committedInstType::SimdMultAcc            0      0.00%     82.28% # Class of committed instruction. (Count)
system.cpu.commitStats0.committedInstType::SimdMatMultAcc            0      0.00%     82.28% # Class of committed instruction. (Count)
system.cpu.commitStats0.committedInstType::SimdShift         1560      0.00%     82.28% # Class of committed instruction. (Count)
system.cpu.commitStats0.committedInstType::SimdShiftAcc            0      0.00%     82.28% # Class of committed instruction. (Count)
system.cpu.commitStats0.committedInstType::SimdDiv            0      0.00%     82.28% # Class of committed instruction. (Count)
system.cpu.commitStats0.committedInstType::SimdSqrt            0      0.00%     82.28% # Class of committed instruction. (Count)
system.cpu.commitStats0.committedInstType::SimdFloatAdd        65533      0.01%     82.30% # Class of committed instruction. (Count)
system.cpu.commitStats0.committedInstType::SimdFloatAlu            0      0.00%     82.30% # Class of committed instruction. (Count)
system.cpu.commitStats0.committedInstType::SimdFloatCmp            0      0.00%     82.30% # Class of committed instruction. (Count)
system.cpu.commitStats0.committedInstType::SimdFloatCvt     10480972      2.09%     84.39% # Class of committed instruction. (Count)
system.cpu.commitStats0.committedInstType::SimdFloatDiv           10      0.00%     84.39% # Class of committed instruction. (Count)
system.cpu.commitStats0.committedInstType::SimdFloatMisc            0      0.00%     84.39% # Class of committed instruction. (Count)
system.cpu.commitStats0.committedInstType::SimdFloatMult            0      0.00%     84.39% # Class of committed instruction. (Count)
system.cpu.commitStats0.committedInstType::SimdFloatMultAcc            0      0.00%     84.39% # Class of committed instruction. (Count)
system.cpu.commitStats0.committedInstType::SimdFloatMatMultAcc            0      0.00%     84.39% # Class of committed instruction. (Count)
system.cpu.commitStats0.committedInstType::SimdFloatSqrt            2      0.00%     84.39% # Class of committed instruction. (Count)
system.cpu.commitStats0.committedInstType::SimdReduceAdd            0      0.00%     84.39% # Class of committed instruction. (Count)
system.cpu.commitStats0.committedInstType::SimdReduceAlu            0      0.00%     84.39% # Class of committed instruction. (Count)
system.cpu.commitStats0.committedInstType::SimdReduceCmp            0      0.00%     84.39% # Class of committed instruction. (Count)
system.cpu.commitStats0.committedInstType::SimdFloatReduceAdd            0      0.00%     84.39% # Class of committed instruction. (Count)
system.cpu.commitStats0.committedInstType::SimdFloatReduceCmp            0      0.00%     84.39% # Class of committed instruction. (Count)
system.cpu.commitStats0.committedInstType::SimdAes            0      0.00%     84.39% # Class of committed instruction. (Count)
system.cpu.commitStats0.committedInstType::SimdAesMix            0      0.00%     84.39% # Class of committed instruction. (Count)
system.cpu.commitStats0.committedInstType::SimdSha1Hash            0      0.00%     84.39% # Class of committed instruction. (Count)
system.cpu.commitStats0.committedInstType::SimdSha1Hash2            0      0.00%     84.39% # Class of committed instruction. (Count)
system.cpu.commitStats0.committedInstType::SimdSha256Hash            0      0.00%     84.39% # Class of committed instruction. (Count)
system.cpu.commitStats0.committedInstType::SimdSha256Hash2            0      0.00%     84.39% # Class of committed instruction. (Count)
system.cpu.commitStats0.committedInstType::SimdShaSigma2            0      0.00%     84.39% # Class of committed instruction. (Count)
system.cpu.commitStats0.committedInstType::SimdShaSigma3            0      0.00%     84.39% # Class of committed instruction. (Count)
system.cpu.commitStats0.committedInstType::SimdPredAlu            0      0.00%     84.39% # Class of committed instruction. (Count)
system.cpu.commitStats0.committedInstType::Matrix            0      0.00%     84.39% # Class of committed instruction. (Count)
system.cpu.commitStats0.committedInstType::MatrixMov            0      0.00%     84.39% # Class of committed instruction. (Count)
system.cpu.commitStats0.committedInstType::MatrixOP            0      0.00%     84.39% # Class of committed instruction. (Count)
system.cpu.commitStats0.committedInstType::MemRead     43403868      8.65%     93.04% # Class of committed instruction. (Count)
system.cpu.commitStats0.committedInstType::MemWrite     15133280      3.02%     96.06% # Class of committed instruction. (Count)
system.cpu.commitStats0.committedInstType::FloatMemRead     12057338      2.40%     98.46% # Class of committed instruction. (Count)
system.cpu.commitStats0.committedInstType::FloatMemWrite      7729544      1.54%    100.00% # Class of committed instruction. (Count)
system.cpu.commitStats0.committedInstType::IprAccess            0      0.00%    100.00% # Class of committed instruction. (Count)
system.cpu.commitStats0.committedInstType::InstPrefetch            0      0.00%    100.00% # Class of committed instruction. (Count)
system.cpu.commitStats0.committedInstType::SimdUnitStrideLoad            0      0.00%    100.00% # Class of committed instruction. (Count)
system.cpu.commitStats0.committedInstType::SimdUnitStrideStore            0      0.00%    100.00% # Class of committed instruction. (Count)
system.cpu.commitStats0.committedInstType::SimdUnitStrideMaskLoad            0      0.00%    100.00% # Class of committed instruction. (Count)
system.cpu.commitStats0.committedInstType::SimdUnitStrideMaskStore            0      0.00%    100.00% # Class of committed instruction. (Count)
system.cpu.commitStats0.committedInstType::SimdStridedLoad            0      0.00%    100.00% # Class of committed instruction. (Count)
system.cpu.commitStats0.committedInstType::SimdStridedStore            0      0.00%    100.00% # Class of committed instruction. (Count)
system.cpu.commitStats0.committedInstType::SimdIndexedLoad            0      0.00%    100.00% # Class of committed instruction. (Count)
system.cpu.commitStats0.committedInstType::SimdIndexedStore            0      0.00%    100.00% # Class of committed instruction. (Count)
system.cpu.commitStats0.committedInstType::SimdWholeRegisterLoad            0      0.00%    100.00% # Class of committed instruction. (Count)
system.cpu.commitStats0.committedInstType::SimdWholeRegisterStore            0      0.00%    100.00% # Class of committed instruction. (Count)
system.cpu.commitStats0.committedInstType::SimdUnitStrideFaultOnlyFirstLoad            0      0.00%    100.00% # Class of committed instruction. (Count)
system.cpu.commitStats0.committedInstType::SimdUnitStrideSegmentedLoad            0      0.00%    100.00% # Class of committed instruction. (Count)
system.cpu.commitStats0.committedInstType::SimdUnitStrideSegmentedStore            0      0.00%    100.00% # Class of committed instruction. (Count)
system.cpu.commitStats0.committedInstType::SimdExt            0      0.00%    100.00% # Class of committed instruction. (Count)
system.cpu.commitStats0.committedInstType::SimdFloatExt            0      0.00%    100.00% # Class of committed instruction. (Count)
system.cpu.commitStats0.committedInstType::SimdConfig            0      0.00%    100.00% # Class of committed instruction. (Count)
system.cpu.commitStats0.committedInstType::total    501612418                       # Class of committed instruction. (Count)
system.cpu.commitStats0.committedControl::IsControl     68703267                       # Class of control type instructions committed (Count)
system.cpu.commitStats0.committedControl::IsDirectControl     67335444                       # Class of control type instructions committed (Count)
system.cpu.commitStats0.committedControl::IsIndirectControl      1367589                       # Class of control type instructions committed (Count)
system.cpu.commitStats0.committedControl::IsCondControl     60574525                       # Class of control type instructions committed (Count)
system.cpu.commitStats0.committedControl::IsUncondControl      8128508                       # Class of control type instructions committed (Count)
system.cpu.commitStats0.committedControl::IsCall       859353                       # Class of control type instructions committed (Count)
system.cpu.commitStats0.committedControl::IsReturn       859348                       # Class of control type instructions committed (Count)
system.cpu.decode.idleCycles                 79044191                       # Number of cycles decode is idle (Cycle)
system.cpu.decode.blockedCycles              34841914                       # Number of cycles decode is blocked (Cycle)
system.cpu.decode.runCycles                 100691806                       # Number of cycles decode is running (Cycle)
system.cpu.decode.unblockCycles               9504390                       # Number of cycles decode is unblocking (Cycle)
system.cpu.decode.squashCycles                3093186                       # Number of cycles decode is squashing (Cycle)
system.cpu.decode.branchResolved             51377903                       # Number of times decode resolved a branch (Count)
system.cpu.decode.branchMispred                  2119                       # Number of times decode detected a branch misprediction (Count)
system.cpu.decode.decodedInsts              729567751                       # Number of instructions handled by decode (Count)
system.cpu.decode.squashedInsts                 10795                       # Number of squashed instructions handled by decode (Count)
system.cpu.executeStats0.numInsts           613843021                       # Number of executed instructions (Count)
system.cpu.executeStats0.numNop                     0                       # Number of nop insts executed (Count)
system.cpu.executeStats0.numBranches         79479253                       # Number of branches executed (Count)
system.cpu.executeStats0.numLoadInsts        72763044                       # Number of load instructions executed (Count)
system.cpu.executeStats0.numStoreInsts       26377275                       # Number of stores executed (Count)
system.cpu.executeStats0.instRate            2.686117                       # Inst execution rate ((Count/Cycle))
system.cpu.executeStats0.numCCRegReads      437210038                       # Number of times the CC registers were read (Count)
system.cpu.executeStats0.numCCRegWrites     227582226                       # Number of times the CC registers were written (Count)
system.cpu.executeStats0.numFpRegReads       42858212                       # Number of times the floating registers were read (Count)
system.cpu.executeStats0.numFpRegWrites      32089877                       # Number of times the floating registers were written (Count)
system.cpu.executeStats0.numIntRegReads     646498932                       # Number of times the integer registers were read (Count)
system.cpu.executeStats0.numIntRegWrites    408531445                       # Number of times the integer registers were written (Count)
system.cpu.executeStats0.numMemRefs          99140319                       # Number of memory refs (Count)
system.cpu.executeStats0.numMiscRegReads    267663648                       # Number of times the Misc registers were read (Count)
system.cpu.executeStats0.numMiscRegWrites          918                       # Number of times the Misc registers were written (Count)
system.cpu.executeStats0.numVecAluAccesses            0                       # Number of vector alu accesses (Count)
system.cpu.executeStats0.numDiscardedOps            0                       # Number of ops (including micro ops) which were discarded before commit (Count)
system.cpu.fetch.predictedBranches           55505928                       # Number of branches that fetch has predicted taken (Count)
system.cpu.fetch.cycles                     152739278                       # Number of cycles fetch has run and was not squashing or blocked (Cycle)
system.cpu.fetch.squashCycles                 6190476                       # Number of cycles fetch has spent squashing (Cycle)
system.cpu.fetch.miscStallCycles                  316                       # Number of cycles fetch has spent waiting on interrupts, or bad addresses, or out of MSHRs (Cycle)
system.cpu.fetch.pendingTrapStallCycles          3001                       # Number of stall cycles due to pending traps (Cycle)
system.cpu.fetch.cacheLines                  61632890                       # Number of cache lines fetched (Count)
[...]
system.mem_ctrl.dram.bwRead::cpu.data        44864784                       # Total read bandwidth from this memory ((Byte/Second))
system.mem_ctrl.dram.bwRead::total          270996761                       # Total read bandwidth from this memory ((Byte/Second))
system.mem_ctrl.dram.bwInstRead::cpu.inst    226131977                       # Instruction read bandwidth from this memory ((Byte/Second))
system.mem_ctrl.dram.bwInstRead::total      226131977                       # Instruction read bandwidth from this memory ((Byte/Second))
system.mem_ctrl.dram.bwWrite::writebacks     14401488                       # Write bandwidth from this memory ((Byte/Second))
system.mem_ctrl.dram.bwWrite::total          14401488                       # Write bandwidth from this memory ((Byte/Second))
system.mem_ctrl.dram.bwTotal::writebacks     14401488                       # Total bandwidth to/from this memory ((Byte/Second))
system.mem_ctrl.dram.bwTotal::cpu.inst      226131977                       # Total bandwidth to/from this memory ((Byte/Second))
system.mem_ctrl.dram.bwTotal::cpu.data       44864784                       # Total bandwidth to/from this memory ((Byte/Second))
system.mem_ctrl.dram.bwTotal::total         285398249                       # Total bandwidth to/from this memory ((Byte/Second))
system.mem_ctrl.dram.readBursts                880215                       # Number of DRAM read bursts (Count)
system.mem_ctrl.dram.writeBursts                21561                       # Number of DRAM write bursts (Count)
system.mem_ctrl.dram.perBankRdBursts::0         85405                       # Per bank write bursts (Count)
system.mem_ctrl.dram.perBankRdBursts::1         20149                       # Per bank write bursts (Count)
system.mem_ctrl.dram.perBankRdBursts::2         69470                       # Per bank write bursts (Count)
system.mem_ctrl.dram.perBankRdBursts::3          3266                       # Per bank write bursts (Count)
system.mem_ctrl.dram.perBankRdBursts::4         84529                       # Per bank write bursts (Count)
system.mem_ctrl.dram.perBankRdBursts::5          3145                       # Per bank write bursts (Count)
system.mem_ctrl.dram.perBankRdBursts::6         20583                       # Per bank write bursts (Count)
system.mem_ctrl.dram.perBankRdBursts::7          2507                       # Per bank write bursts (Count)
system.mem_ctrl.dram.perBankRdBursts::8          2606                       # Per bank write bursts (Count)
system.mem_ctrl.dram.perBankRdBursts::9         35345                       # Per bank write bursts (Count)
system.mem_ctrl.dram.perBankRdBursts::10         3989                       # Per bank write bursts (Count)
system.mem_ctrl.dram.perBankRdBursts::11         6107                       # Per bank write bursts (Count)
system.mem_ctrl.dram.perBankRdBursts::12       234130                       # Per bank write bursts (Count)
system.mem_ctrl.dram.perBankRdBursts::13       152328                       # Per bank write bursts (Count)
system.mem_ctrl.dram.perBankRdBursts::14        69576                       # Per bank write bursts (Count)
system.mem_ctrl.dram.perBankRdBursts::15        87080                       # Per bank write bursts (Count)
system.mem_ctrl.dram.perBankWrBursts::0          1224                       # Per bank write bursts (Count)
system.mem_ctrl.dram.perBankWrBursts::1          1357                       # Per bank write bursts (Count)
system.mem_ctrl.dram.perBankWrBursts::2          1475                       # Per bank write bursts (Count)
system.mem_ctrl.dram.perBankWrBursts::3          1095                       # Per bank write bursts (Count)
system.mem_ctrl.dram.perBankWrBursts::4           959                       # Per bank write bursts (Count)
system.mem_ctrl.dram.perBankWrBursts::5          1137                       # Per bank write bursts (Count)
system.mem_ctrl.dram.perBankWrBursts::6          1120                       # Per bank write bursts (Count)
system.mem_ctrl.dram.perBankWrBursts::7          1092                       # Per bank write bursts (Count)
system.mem_ctrl.dram.perBankWrBursts::8          1089                       # Per bank write bursts (Count)
system.mem_ctrl.dram.perBankWrBursts::9          1132                       # Per bank write bursts (Count)
system.mem_ctrl.dram.perBankWrBursts::10         1407                       # Per bank write bursts (Count)
system.mem_ctrl.dram.perBankWrBursts::11         1523                       # Per bank write bursts (Count)
system.mem_ctrl.dram.perBankWrBursts::12         1492                       # Per bank write bursts (Count)
system.mem_ctrl.dram.perBankWrBursts::13         2285                       # Per bank write bursts (Count)
system.mem_ctrl.dram.perBankWrBursts::14         1486                       # Per bank write bursts (Count)
system.mem_ctrl.dram.perBankWrBursts::15         1688                       # Per bank write bursts (Count)
system.mem_ctrl.dram.totQLat               8133120166                       # Total ticks spent queuing (Tick)
system.mem_ctrl.dram.totBusLat             4401075000                       # Total ticks spent in databus transfers (Tick)
system.mem_ctrl.dram.totMemAccLat         24637151416                       # Total ticks spent from burst creation until serviced by the DRAM (Tick)
system.mem_ctrl.dram.avgQLat                  9239.92                       # Average queueing delay per DRAM burst ((Tick/Count))
system.mem_ctrl.dram.avgBusLat                5000.00                       # Average bus latency per DRAM burst ((Tick/Count))
system.mem_ctrl.dram.avgMemAccLat            27989.92                       # Average memory access latency per DRAM burst ((Tick/Count))
system.mem_ctrl.dram.readRowHits               626828                       # Number of row buffer hits during reads (Count)
system.mem_ctrl.dram.writeRowHits               19585                       # Number of row buffer hits during writes (Count)
system.mem_ctrl.dram.readRowHitRate             71.21                       # Row buffer hit rate for reads (Ratio)
system.mem_ctrl.dram.writeRowHitRate            90.84                       # Row buffer hit rate for writes (Ratio)
system.mem_ctrl.dram.bytesPerActivate::samples       255365                       # Bytes accessed per row activation (Byte)
system.mem_ctrl.dram.bytesPerActivate::mean   226.004848                       # Bytes accessed per row activation (Byte)
system.mem_ctrl.dram.bytesPerActivate::gmean   167.332723                       # Bytes accessed per row activation (Byte)
system.mem_ctrl.dram.bytesPerActivate::stdev   188.604220                       # Bytes accessed per row activation (Byte)
system.mem_ctrl.dram.bytesPerActivate::0-127        78625     30.79%     30.79% # Bytes accessed per row activation (Byte)
system.mem_ctrl.dram.bytesPerActivate::128-255        56787     22.24%     53.03% # Bytes accessed per row activation (Byte)
system.mem_ctrl.dram.bytesPerActivate::256-383        88429     34.63%     87.66% # Bytes accessed per row activation (Byte)
system.mem_ctrl.dram.bytesPerActivate::384-511        12079      4.73%     92.39% # Bytes accessed per row activation (Byte)
system.mem_ctrl.dram.bytesPerActivate::512-639         1598      0.63%     93.01% # Bytes accessed per row activation (Byte)
system.mem_ctrl.dram.bytesPerActivate::640-767         7085      2.77%     95.79% # Bytes accessed per row activation (Byte)
system.mem_ctrl.dram.bytesPerActivate::768-895         7297      2.86%     98.64% # Bytes accessed per row activation (Byte)
system.mem_ctrl.dram.bytesPerActivate::896-1023         1914      0.75%     99.39% # Bytes accessed per row activation (Byte)
system.mem_ctrl.dram.bytesPerActivate::1024-1151         1551      0.61%    100.00% # Bytes accessed per row activation (Byte)
system.mem_ctrl.dram.bytesPerActivate::total       255365                       # Bytes accessed per row activation (Byte)
system.mem_ctrl.dram.dramBytesRead           56333760                       # Total bytes read (Byte)
system.mem_ctrl.dram.dramBytesWritten         1379904                       # Total bytes written (Byte)
system.mem_ctrl.dram.avgRdBW               262.707094                       # Average DRAM read bandwidth in MiBytes/s ((Byte/Second))
system.mem_ctrl.dram.avgWrBW                 6.435050                       # Average DRAM write bandwidth in MiBytes/s ((Byte/Second))
system.mem_ctrl.dram.peakBW                  12800.00                       # Theoretical peak bandwidth in MiByte/s ((Byte/Second))
system.mem_ctrl.dram.busUtil                     2.10                       # Data bus utilization in percentage (Ratio)
system.mem_ctrl.dram.busUtilRead                 2.05                       # Data bus utilization in percentage for reads (Ratio)
system.mem_ctrl.dram.busUtilWrite                0.05                       # Data bus utilization in percentage for writes (Ratio)
system.mem_ctrl.dram.pageHitRate                71.68                       # Row buffer hit rate, read and write combined (Ratio)
system.mem_ctrl.dram.power_state.pwrStateResidencyTicks::UNDEFINED 214435625642                       # Cumulative time (in ticks) in various power states (Tick)
system.mem_ctrl.dram.rank0.actEnergy        819750540                       # Energy for activate commands per rank (pJ) (Joule)
system.mem_ctrl.dram.rank0.preEnergy        435707745                       # Energy for precharge commands per rank (pJ) (Joule)
system.mem_ctrl.dram.rank0.readEnergy      2063845560                       # Energy for read commands per rank (pJ) (Joule)
system.mem_ctrl.dram.rank0.writeEnergy       49375980                       # Energy for write commands per rank (pJ) (Joule)
system.mem_ctrl.dram.rank0.refreshEnergy 16927185600.000002                       # Energy for refresh commands per rank (pJ) (Joule)
system.mem_ctrl.dram.rank0.actBackEnergy  84750872370                       # Energy for active background per rank (pJ) (Joule)
system.mem_ctrl.dram.rank0.preBackEnergy  10974124800                       # Energy for precharge background per rank (pJ) (Joule)
system.mem_ctrl.dram.rank0.actPowerDownEnergy            0                       # Energy for active power-down per rank (pJ) (Joule)
system.mem_ctrl.dram.rank0.prePowerDownEnergy            0                       # Energy for precharge power-down per rank (pJ) (Joule)
system.mem_ctrl.dram.rank0.selfRefreshEnergy            0                       # Energy for self refresh per rank (pJ) (Joule)
system.mem_ctrl.dram.rank0.totalEnergy   116020862595                       # Total energy per rank (pJ) (Joule)
system.mem_ctrl.dram.rank0.averagePower    541.052179                       # Core power per rank (mW) (Watt)
system.mem_ctrl.dram.rank0.totalIdleTime            0                       # Total Idle time Per DRAM Rank (Tick)
system.mem_ctrl.dram.rank0.pwrStateTime::IDLE  27801983866                       # Time in different power states (Tick)
system.mem_ctrl.dram.rank0.pwrStateTime::REF   7160400000                       # Time in different power states (Tick)
system.mem_ctrl.dram.rank0.pwrStateTime::SREF            0                       # Time in different power states (Tick)
system.mem_ctrl.dram.rank0.pwrStateTime::PRE_PDN            0                       # Time in different power states (Tick)
system.mem_ctrl.dram.rank0.pwrStateTime::ACT 179473241776                       # Time in different power states (Tick)
system.mem_ctrl.dram.rank0.pwrStateTime::ACT_PDN            0                       # Time in different power states (Tick)
system.mem_ctrl.dram.rank1.actEnergy       1003541280                       # Energy for activate commands per rank (pJ) (Joule)
system.mem_ctrl.dram.rank1.preEnergy        533402430                       # Energy for precharge commands per rank (pJ) (Joule)
system.mem_ctrl.dram.rank1.readEnergy      4220889540                       # Energy for read commands per rank (pJ) (Joule)
system.mem_ctrl.dram.rank1.writeEnergy       63172440                       # Energy for write commands per rank (pJ) (Joule)
system.mem_ctrl.dram.rank1.refreshEnergy 16927185600.000002                       # Energy for refresh commands per rank (pJ) (Joule)
system.mem_ctrl.dram.rank1.actBackEnergy  92400587010                       # Energy for active background per rank (pJ) (Joule)
system.mem_ctrl.dram.rank1.preBackEnergy   4532259840                       # Energy for precharge background per rank (pJ) (Joule)
system.mem_ctrl.dram.rank1.actPowerDownEnergy            0                       # Energy for active power-down per rank (pJ) (Joule)
system.mem_ctrl.dram.rank1.prePowerDownEnergy            0                       # Energy for precharge power-down per rank (pJ) (Joule)
system.mem_ctrl.dram.rank1.selfRefreshEnergy            0                       # Energy for self refresh per rank (pJ) (Joule)
system.mem_ctrl.dram.rank1.totalEnergy   119681038140                       # Total energy per rank (pJ) (Joule)
system.mem_ctrl.dram.rank1.averagePower    558.121057                       # Core power per rank (mW) (Watt)
system.mem_ctrl.dram.rank1.totalIdleTime            0                       # Total Idle time Per DRAM Rank (Tick)
system.mem_ctrl.dram.rank1.pwrStateTime::IDLE  11032712641                       # Time in different power states (Tick)
system.mem_ctrl.dram.rank1.pwrStateTime::REF   7160400000                       # Time in different power states (Tick)
system.mem_ctrl.dram.rank1.pwrStateTime::SREF            0                       # Time in different power states (Tick)
system.mem_ctrl.dram.rank1.pwrStateTime::PRE_PDN            0                       # Time in different power states (Tick)
system.mem_ctrl.dram.rank1.pwrStateTime::ACT 196242513001                       # Time in different power states (Tick)
system.mem_ctrl.dram.rank1.pwrStateTime::ACT_PDN            0                       # Time in different power states (Tick)
system.mem_ctrl.power_state.pwrStateResidencyTicks::UNDEFINED 214435625642                       # Cumulative time (in ticks) in various power states (Tick)
system.membus.transDist::ReadResp              860802                       # Transaction distribution (Count)
system.membus.transDist::WritebackDirty         48253                       # Transaction distribution (Count)
system.membus.transDist::CleanEvict            859738                       # Transaction distribution (Count)
system.membus.transDist::ReadExReq              47190                       # Transaction distribution (Count)
system.membus.transDist::ReadExResp             47190                       # Transaction distribution (Count)
system.membus.transDist::ReadSharedReq         860801                       # Transaction distribution (Count)
system.membus.pktCount_system.cpu.l1d.mem_side_port::system.mem_ctrl.port       450966                       # Packet count per connected requestor and responder (Count)
system.membus.pktCount_system.cpu.l1d.mem_side_port::total       450966                       # Packet count per connected requestor and responder (Count)
system.membus.pktCount_system.cpu.l1i.mem_side_port::system.mem_ctrl.port      2273007                       # Packet count per connected requestor and responder (Count)
system.membus.pktCount_system.cpu.l1i.mem_side_port::total      2273007                       # Packet count per connected requestor and responder (Count)
system.membus.pktCount::total                 2723973                       # Packet count per connected requestor and responder (Count)
system.membus.pktSize_system.cpu.l1d.mem_side_port::system.mem_ctrl.port     12708800                       # Cumulative packet size per connected requestor and responder (Byte)
system.membus.pktSize_system.cpu.l1d.mem_side_port::total     12708800                       # Cumulative packet size per connected requestor and responder (Byte)
system.membus.pktSize_system.cpu.l1i.mem_side_port::system.mem_ctrl.port     48490816                       # Cumulative packet size per connected requestor and responder (Byte)
system.membus.pktSize_system.cpu.l1i.mem_side_port::total     48490816                       # Cumulative packet size per connected requestor and responder (Byte)
system.membus.pktSize::total                 61199616                       # Cumulative packet size per connected requestor and responder (Byte)
system.membus.snoops                                1                       # Total snoops (Count)
system.membus.snoopTraffic                         64                       # Total snoop traffic (Byte)
system.membus.snoopFanout::samples             907991                       # Request fanout histogram (Count)
system.membus.snoopFanout::mean              0.000028                       # Request fanout histogram (Count)
system.membus.snoopFanout::stdev             0.005247                       # Request fanout histogram (Count)
system.membus.snoopFanout::underflows               0      0.00%      0.00% # Request fanout histogram (Count)
system.membus.snoopFanout::0                   907966    100.00%    100.00% # Request fanout histogram (Count)
system.membus.snoopFanout::1                       25      0.00%    100.00% # Request fanout histogram (Count)
system.membus.snoopFanout::2                        0      0.00%    100.00% # Request fanout histogram (Count)
system.membus.snoopFanout::overflows                0      0.00%    100.00% # Request fanout histogram (Count)
system.membus.snoopFanout::min_value                0                       # Request fanout histogram (Count)
system.membus.snoopFanout::max_value                1                       # Request fanout histogram (Count)
system.membus.snoopFanout::total               907991                       # Request fanout histogram (Count)
system.membus.power_state.pwrStateResidencyTicks::UNDEFINED 214435625642                       # Cumulative time (in ticks) in various power states (Tick)
system.membus.reqLayer2.occupancy         26785917002                       # Layer occupancy (ticks) (Tick)
system.membus.reqLayer2.utilization               0.1                       # Layer utilization (Ratio)
system.membus.respLayer2.occupancy        10226586478                       # Layer occupancy (ticks) (Tick)
system.membus.respLayer2.utilization              0.0                       # Layer utilization (Ratio)
system.membus.respLayer3.occupancy        51527948565                       # Layer occupancy (ticks) (Tick)
system.membus.respLayer3.utilization              0.2                       # Layer utilization (Ratio)
system.membus.snoop_filter.totRequests        1815982                       # Total number of requests made to the snoop filter. (Count)
system.membus.snoop_filter.hitSingleRequests       907991                       # Number of requests hitting in the snoop filter with a single holder of the requested data. (Count)
system.membus.snoop_filter.hitMultiRequests           25                       # Number of requests hitting in the snoop filter with multiple (>1) holders of the requested data. (Count)
system.membus.snoop_filter.totSnoops                0                       # Total number of snoops made to the snoop filter. (Count)
system.membus.snoop_filter.hitSingleSnoops            0                       # Number of snoops hitting in the snoop filter with a single holder of the requested data. (Count)
system.membus.snoop_filter.hitMultiSnoops            0                       # Number of snoops hitting in the snoop filter with multiple (>1) holders of the requested data. (Count)
system.workload.inst.arm                            0                       # number of arm instructions executed (Count)
system.workload.inst.quiesce                        0                       # number of quiesce instructions executed (Count)

---------- End Simulation Statistics   ----------
