
---------- Begin Simulation Statistics ----------
simSeconds                                   1.029733                       # Number of seconds simulated (Second)
simTicks                                 1029732882701                       # Number of ticks simulated (Tick)
finalTick                                1029732882701                       # Number of ticks from beginning of simulation (restored from checkpoints and never reset) (Tick)
simFreq                                  1000000000000                       # The number of ticks per simulated second ((Tick/Second))
hostSeconds                                    651.02                       # Real time elapsed on the host (Second)
hostTickRate                               1581718900                       # The number of ticks simulated per host second (ticks/s) ((Tick/Second))
hostMemory                                    8644876                       # Number of bytes of host memory used (Byte)
simInsts                                    119047035                       # Number of instructions simulated (Count)
simOps                                      223095505                       # Number of ops (including micro ops) simulated (Count)
hostInstRate                                   182862                       # Simulator instruction rate (inst/s) ((Count/Second))
hostOpRate                                     342685                       # Simulator op (including micro ops) rate (op/s) ((Count/Second))
system.clk_domain.clock                         13333                       # Clock period in ticks (Tick)
system.clk_domain.voltage_domain.voltage            1                       # Voltage in Volts (Volt)
system.cpu.numCycles                         77231898                       # Number of cpu cycles simulated (Cycle)
system.cpu.cpi                               0.648751                       # CPI: cycles per instruction (core level) ((Cycle/Count))
system.cpu.ipc                               1.541423                       # IPC: instructions per cycle (core level) ((Count/Cycle))
system.cpu.numWorkItemsStarted                      0                       # Number of work items this cpu started (Count)
system.cpu.numWorkItemsCompleted                    0                       # Number of work items this cpu completed (Count)
system.cpu.instsAdded                       318630898                       # Number of instructions added to the IQ (excludes non-spec) (Count)
system.cpu.nonSpecInstsAdded                   274896                       # Number of non-speculative instructions added to the IQ (Count)
system.cpu.instsIssued                      288250673                       # Number of instructions issued (Count)
system.cpu.squashedInstsIssued                1381855                       # Number of squashed instructions issued (Count)
system.cpu.squashedInstsExamined             95810246                       # Number of squashed instructions iterated over during squash; mainly for profiling (Count)
system.cpu.squashedOperandsExamined         162018427                       # Number of squashed operands that are examined and possibly removed from graph (Count)
system.cpu.squashedNonSpecRemoved                5084                       # Number of squashed non-spec instructions that were removed (Count)
system.cpu.numIssuedDist::samples            77222270                       # Number of insts issued each cycle (Count)
system.cpu.numIssuedDist::mean               3.732740                       # Number of insts issued each cycle (Count)
system.cpu.numIssuedDist::stdev              2.941290                       # Number of insts issued each cycle (Count)
system.cpu.numIssuedDist::underflows                0      0.00%      0.00% # Number of insts issued each cycle (Count)
system.cpu.numIssuedDist::0                  20665420     26.76%     26.76% # Number of insts issued each cycle (Count)
system.cpu.numIssuedDist::1                   5295735      6.86%     33.62% # Number of insts issued each cycle (Count)
system.cpu.numIssuedDist::2                   4183586      5.42%     39.04% # Number of insts issued each cycle (Count)
system.cpu.numIssuedDist::3                   5070490      6.57%     45.60% # Number of insts issued each cycle (Count)
system.cpu.numIssuedDist::4                   6137425      7.95%     53.55% # Number of insts issued each cycle (Count)
system.cpu.numIssuedDist::5                   7467601      9.67%     63.22% # Number of insts issued each cycle (Count)
system.cpu.numIssuedDist::6                   9829765     12.73%     75.95% # Number of insts issued each cycle (Count)
system.cpu.numIssuedDist::7                  10067983     13.04%     88.99% # Number of insts issued each cycle (Count)
system.cpu.numIssuedDist::8                   8504265     11.01%    100.00% # Number of insts issued each cycle (Count)
system.cpu.numIssuedDist::overflows                 0      0.00%    100.00% # Number of insts issued each cycle (Count)
system.cpu.numIssuedDist::min_value                 0                       # Number of insts issued each cycle (Count)
system.cpu.numIssuedDist::max_value                 8                       # Number of insts issued each cycle (Count)
system.cpu.numIssuedDist::total              77222270                       # Number of insts issued each cycle (Count)
system.cpu.statFuBusy::No_OpClass                   0      0.00%      0.00% # attempts to use FU when none available (Count)
system.cpu.statFuBusy::IntAlu                 6220230     74.86%     74.86% # attempts to use FU when none available (Count)
system.cpu.statFuBusy::IntMult                      0      0.00%     74.86% # attempts to use FU when none available (Count)
system.cpu.statFuBusy::IntDiv                       1      0.00%     74.86% # attempts to use FU when none available (Count)
system.cpu.statFuBusy::FloatAdd                     0      0.00%     74.86% # attempts to use FU when none available (Count)
system.cpu.statFuBusy::FloatCmp                     0      0.00%     74.86% # attempts to use FU when none available (Count)
system.cpu.statFuBusy::FloatCvt                     0      0.00%     74.86% # attempts to use FU when none available (Count)
system.cpu.statFuBusy::FloatMult                    0      0.00%     74.86% # attempts to use FU when none available (Count)
system.cpu.statFuBusy::FloatMultAcc                 0      0.00%     74.86% # attempts to use FU when none available (Count)
system.cpu.statFuBusy::FloatDiv                     0      0.00%     74.86% # attempts to use FU when none available (Count)
system.cpu.statFuBusy::FloatMisc                    0      0.00%     74.86% # attempts to use FU when none available (Count)
system.cpu.statFuBusy::FloatSqrt                    0      0.00%     74.86% # attempts to use FU when none available (Count)
system.cpu.statFuBusy::SimdAdd                     17      0.00%     74.86% # attempts to use FU when none available (Count)
system.cpu.statFuBusy::SimdAddAcc                   0      0.00%     74.86% # attempts to use FU when none available (Count)
system.cpu.statFuBusy::SimdAlu                    128      0.00%     74.86% # attempts to use FU when none available (Count)
system.cpu.statFuBusy::SimdCmp                      2      0.00%     74.86% # attempts to use FU when none available (Count)
system.cpu.statFuBusy::SimdCvt                    155      0.00%     74.86% # attempts to use FU when none available (Count)
system.cpu.statFuBusy::SimdMisc                    34      0.00%     74.86% # attempts to use FU when none available (Count)
system.cpu.statFuBusy::SimdMult                     0      0.00%     74.86% # attempts to use FU when none available (Count)
system.cpu.statFuBusy::SimdMultAcc                  0      0.00%     74.86% # attempts to use FU when none available (Count)
system.cpu.statFuBusy::SimdMatMultAcc               0      0.00%     74.86% # attempts to use FU when none available (Count)
system.cpu.statFuBusy::SimdShift                   20      0.00%     74.86% # attempts to use FU when none available (Count)
system.cpu.statFuBusy::SimdShiftAcc                 0      0.00%     74.86% # attempts to use FU when none available (Count)
system.cpu.statFuBusy::SimdDiv                      0      0.00%     74.86% # attempts to use FU when none available (Count)
system.cpu.statFuBusy::SimdSqrt                     0      0.00%     74.86% # attempts to use FU when none available (Count)
system.cpu.statFuBusy::SimdFloatAdd                 0      0.00%     74.86% # attempts to use FU when none available (Count)
system.cpu.statFuBusy::SimdFloatAlu                 0      0.00%     74.86% # attempts to use FU when none available (Count)
system.cpu.statFuBusy::SimdFloatCmp                 0      0.00%     74.86% # attempts to use FU when none available (Count)
system.cpu.statFuBusy::SimdFloatCvt                 0      0.00%     74.86% # attempts to use FU when none available (Count)
system.cpu.statFuBusy::SimdFloatDiv                 0      0.00%     74.86% # attempts to use FU when none available (Count)
system.cpu.statFuBusy::SimdFloatMisc                0      0.00%     74.86% # attempts to use FU when none available (Count)
system.cpu.statFuBusy::SimdFloatMult                0      0.00%     74.86% # attempts to use FU when none available (Count)
system.cpu.statFuBusy::SimdFloatMultAcc             0      0.00%     74.86% # attempts to use FU when none available (Count)
system.cpu.statFuBusy::SimdFloatMatMultAcc            0      0.00%     74.86% # attempts to use FU when none available (Count)
system.cpu.statFuBusy::SimdFloatSqrt                0      0.00%     74.86% # attempts to use FU when none available (Count)
system.cpu.statFuBusy::SimdReduceAdd                0      0.00%     74.86% # attempts to use FU when none available (Count)
system.cpu.statFuBusy::SimdReduceAlu                0      0.00%     74.86% # attempts to use FU when none available (Count)
system.cpu.statFuBusy::SimdReduceCmp                0      0.00%     74.86% # attempts to use FU when none available (Count)
system.cpu.statFuBusy::SimdFloatReduceAdd            0      0.00%     74.86% # attempts to use FU when none available (Count)
system.cpu.statFuBusy::SimdFloatReduceCmp            0      0.00%     74.86% # attempts to use FU when none available (Count)
system.cpu.statFuBusy::SimdAes                      0      0.00%     74.86% # attempts to use FU when none available (Count)
system.cpu.statFuBusy::SimdAesMix                   0      0.00%     74.86% # attempts to use FU when none available (Count)
system.cpu.statFuBusy::SimdSha1Hash                 0      0.00%     74.86% # attempts to use FU when none available (Count)
system.cpu.statFuBusy::SimdSha1Hash2                0      0.00%     74.86% # attempts to use FU when none available (Count)
system.cpu.statFuBusy::SimdSha256Hash               0      0.00%     74.86% # attempts to use FU when none available (Count)
system.cpu.statFuBusy::SimdSha256Hash2              0      0.00%     74.86% # attempts to use FU when none available (Count)
system.cpu.statFuBusy::SimdShaSigma2                0      0.00%     74.86% # attempts to use FU when none available (Count)
system.cpu.statFuBusy::SimdShaSigma3                0      0.00%     74.86% # attempts to use FU when none available (Count)
system.cpu.statFuBusy::SimdPredAlu                  0      0.00%     74.86% # attempts to use FU when none available (Count)
system.cpu.statFuBusy::Matrix                       0      0.00%     74.86% # attempts to use FU when none available (Count)
system.cpu.statFuBusy::MatrixMov                    0      0.00%     74.86% # attempts to use FU when none available (Count)
system.cpu.statFuBusy::MatrixOP                     0      0.00%     74.86% # attempts to use FU when none available (Count)
system.cpu.statFuBusy::MemRead                1515522     18.24%     93.10% # attempts to use FU when none available (Count)
system.cpu.statFuBusy::MemWrite                554390      6.67%     99.77% # attempts to use FU when none available (Count)
system.cpu.statFuBusy::FloatMemRead              5409      0.07%     99.84% # attempts to use FU when none available (Count)
system.cpu.statFuBusy::FloatMemWrite            13495      0.16%    100.00% # attempts to use FU when none available (Count)
system.cpu.statFuBusy::IprAccess                    0      0.00%    100.00% # attempts to use FU when none available (Count)
system.cpu.statFuBusy::InstPrefetch                 0      0.00%    100.00% # attempts to use FU when none available (Count)
system.cpu.statFuBusy::SimdUnitStrideLoad            0      0.00%    100.00% # attempts to use FU when none available (Count)
system.cpu.statFuBusy::SimdUnitStrideStore            0      0.00%    100.00% # attempts to use FU when none available (Count)
system.cpu.statFuBusy::SimdUnitStrideMaskLoad            0      0.00%    100.00% # attempts to use FU when none available (Count)
system.cpu.statFuBusy::SimdUnitStrideMaskStore            0      0.00%    100.00% # attempts to use FU when none available (Count)
system.cpu.statFuBusy::SimdStridedLoad              0      0.00%    100.00% # attempts to use FU when none available (Count)
system.cpu.statFuBusy::SimdStridedStore             0      0.00%    100.00% # attempts to use FU when none available (Count)
system.cpu.statFuBusy::SimdIndexedLoad              0      0.00%    100.00% # attempts to use FU when none available (Count)
system.cpu.statFuBusy::SimdIndexedStore             0      0.00%    100.00% # attempts to use FU when none available (Count)
system.cpu.statFuBusy::SimdWholeRegisterLoad            0      0.00%    100.00% # attempts to use FU when none available (Count)
system.cpu.statFuBusy::SimdWholeRegisterStore            0      0.00%    100.00% # attempts to use FU when none available (Count)
system.cpu.statFuBusy::SimdUnitStrideFaultOnlyFirstLoad            0      0.00%    100.00% # attempts to use FU when none available (Count)
system.cpu.statFuBusy::SimdUnitStrideSegmentedLoad            0      0.00%    100.00% # attempts to use FU when none available (Count)
system.cpu.statFuBusy::SimdUnitStrideSegmentedStore            0      0.00%    100.00% # attempts to use FU when none available (Count)
system.cpu.statFuBusy::SimdExt                      0      0.00%    100.00% # attempts to use FU when none available (Count)
system.cpu.statFuBusy::SimdFloatExt                 0      0.00%    100.00% # attempts to use FU when none available (Count)
system.cpu.statFuBusy::SimdConfig                   0      0.00%    100.00% # attempts to use FU when none available (Count)
system.cpu.statIssuedInstType_0::No_OpClass      2136228      0.74%      0.74% # Number of instructions issued per FU type, per thread (Count)
system.cpu.statIssuedInstType_0::IntAlu     207859930     72.11%     72.85% # Number of instructions issued per FU type, per thread (Count)
system.cpu.statIssuedInstType_0::IntMult      1104108      0.38%     73.23% # Number of instructions issued per FU type, per thread (Count)
system.cpu.statIssuedInstType_0::IntDiv       5394430      1.87%     75.11% # Number of instructions issued per FU type, per thread (Count)
system.cpu.statIssuedInstType_0::FloatAdd         9533      0.00%     75.11% # Number of instructions issued per FU type, per thread (Count)
system.cpu.statIssuedInstType_0::FloatCmp            0      0.00%     75.11% # Number of instructions issued per FU type, per thread (Count)
system.cpu.statIssuedInstType_0::FloatCvt         1356      0.00%     75.11% # Number of instructions issued per FU type, per thread (Count)
system.cpu.statIssuedInstType_0::FloatMult            0      0.00%     75.11% # Number of instructions issued per FU type, per thread (Count)
system.cpu.statIssuedInstType_0::FloatMultAcc            0      0.00%     75.11% # Number of instructions issued per FU type, per thread (Count)
system.cpu.statIssuedInstType_0::FloatDiv            0      0.00%     75.11% # Number of instructions issued per FU type, per thread (Count)
system.cpu.statIssuedInstType_0::FloatMisc            0      0.00%     75.11% # Number of instructions issued per FU type, per thread (Count)
system.cpu.statIssuedInstType_0::FloatSqrt            0      0.00%     75.11% # Number of instructions issued per FU type, per thread (Count)
system.cpu.statIssuedInstType_0::SimdAdd         7381      0.00%     75.11% # Number of instructions issued per FU type, per thread (Count)
system.cpu.statIssuedInstType_0::SimdAddAcc            0      0.00%     75.11% # Number of instructions issued per FU type, per thread (Count)
system.cpu.statIssuedInstType_0::SimdAlu      1375647      0.48%     75.59% # Number of instructions issued per FU type, per thread (Count)
system.cpu.statIssuedInstType_0::SimdCmp           16      0.00%     75.59% # Number of instructions issued per FU type, per thread (Count)
system.cpu.statIssuedInstType_0::SimdCvt        15602      0.01%     75.60% # Number of instructions issued per FU type, per thread (Count)
system.cpu.statIssuedInstType_0::SimdMisc        15481      0.01%     75.60% # Number of instructions issued per FU type, per thread (Count)
system.cpu.statIssuedInstType_0::SimdMult            0      0.00%     75.60% # Number of instructions issued per FU type, per thread (Count)
system.cpu.statIssuedInstType_0::SimdMultAcc            0      0.00%     75.60% # Number of instructions issued per FU type, per thread (Count)
system.cpu.statIssuedInstType_0::SimdMatMultAcc            0      0.00%     75.60% # Number of instructions issued per FU type, per thread (Count)
system.cpu.statIssuedInstType_0::SimdShift         3207      0.00%     75.60% # Number of instructions issued per FU type, per thread (Count)
system.cpu.statIssuedInstType_0::SimdShiftAcc            0      0.00%     75.60% # Number of instructions issued per FU type, per thread (Count)
system.cpu.statIssuedInstType_0::SimdDiv            0      0.00%     75.60% # Number of instructions issued per FU type, per thread (Count)
system.cpu.statIssuedInstType_0::SimdSqrt            0      0.00%     75.60% # Number of instructions issued per FU type, per thread (Count)
system.cpu.statIssuedInstType_0::SimdFloatAdd          201      0.00%     75.60% # Number of instructions issued per FU type, per thread (Count)
system.cpu.statIssuedInstType_0::SimdFloatAlu            0      0.00%     75.60% # Number of instructions issued per FU type, per thread (Count)
system.cpu.statIssuedInstType_0::SimdFloatCmp            0      0.00%     75.60% # Number of instructions issued per FU type, per thread (Count)
system.cpu.statIssuedInstType_0::SimdFloatCvt          343      0.00%     75.60% # Number of instructions issued per FU type, per thread (Count)
system.cpu.statIssuedInstType_0::SimdFloatDiv          205      0.00%     75.60% # Number of instructions issued per FU type, per thread (Count)
system.cpu.statIssuedInstType_0::SimdFloatMisc            0      0.00%     75.60% # Number of instructions issued per FU type, per thread (Count)
system.cpu.statIssuedInstType_0::SimdFloatMult            0      0.00%     75.60% # Number of instructions issued per FU type, per thread (Count)
system.cpu.statIssuedInstType_0::SimdFloatMultAcc            0      0.00%     75.60% # Number of instructions issued per FU type, per thread (Count)
system.cpu.statIssuedInstType_0::SimdFloatMatMultAcc            0      0.00%     75.60% # Number of instructions issued per FU type, per thread (Count)
system.cpu.statIssuedInstType_0::SimdFloatSqrt            0      0.00%     75.60% # Number of instructions issued per FU type, per thread (Count)
system.cpu.statIssuedInstType_0::SimdReduceAdd            0      0.00%     75.60% # Number of instructions issued per FU type, per thread (Count)
system.cpu.statIssuedInstType_0::SimdReduceAlu            0      0.00%     75.60% # Number of instructions issued per FU type, per thread (Count)
system.cpu.statIssuedInstType_0::SimdReduceCmp            0      0.00%     75.60% # Number of instructions issued per FU type, per thread (Count)
system.cpu.statIssuedInstType_0::SimdFloatReduceAdd            0      0.00%     75.60% # Number of instructions issued per FU type, per thread (Count)
system.cpu.statIssuedInstType_0::SimdFloatReduceCmp            0      0.00%     75.60% # Number of instructions issued per FU type, per thread (Count)
system.cpu.statIssuedInstType_0::SimdAes            0      0.00%     75.60% # Number of instructions issued per FU type, per thread (Count)
system.cpu.statIssuedInstType_0::SimdAesMix            0      0.00%     75.60% # Number of instructions issued per FU type, per thread (Count)
system.cpu.statIssuedInstType_0::SimdSha1Hash            0      0.00%     75.60% # Number of instructions issued per FU type, per thread (Count)
system.cpu.statIssuedInstType_0::SimdSha1Hash2            0      0.00%     75.60% # Number of instructions issued per FU type, per thread (Count)
system.cpu.statIssuedInstType_0::SimdSha256Hash            0      0.00%     75.60% # Number of instructions issued per FU type, per thread (Count)
system.cpu.statIssuedInstType_0::SimdSha256Hash2            0      0.00%     75.60% # Number of instructions issued per FU type, per thread (Count)
system.cpu.statIssuedInstType_0::SimdShaSigma2            0      0.00%     75.60% # Number of instructions issued per FU type, per thread (Count)
system.cpu.statIssuedInstType_0::SimdShaSigma3            0      0.00%     75.60% # Number of instructions issued per FU type, per thread (Count)
system.cpu.statIssuedInstType_0::SimdPredAlu            0      0.00%     75.60% # Number of instructions issued per FU type, per thread (Count)
system.cpu.statIssuedInstType_0::Matrix             0      0.00%     75.60% # Number of instructions issued per FU type, per thread (Count)
system.cpu.statIssuedInstType_0::MatrixMov            0      0.00%     75.60% # Number of instructions issued per FU type, per thread (Count)
system.cpu.statIssuedInstType_0::MatrixOP            0      0.00%     75.60% # Number of instructions issued per FU type, per thread (Count)
system.cpu.statIssuedInstType_0::MemRead     51293073     17.79%     93.40% # Number of instructions issued per FU type, per thread (Count)
system.cpu.statIssuedInstType_0::MemWrite     15707440      5.45%     98.85% # Number of instructions issued per FU type, per thread (Count)
system.cpu.statIssuedInstType_0::FloatMemRead      1216648      0.42%     99.27% # Number of instructions issued per FU type, per thread (Count)
system.cpu.statIssuedInstType_0::FloatMemWrite      2109844      0.73%    100.00% # Number of instructions issued per FU type, per thread (Count)
system.cpu.statIssuedInstType_0::IprAccess            0      0.00%    100.00% # Number of instructions issued per FU type, per thread (Count)
system.cpu.statIssuedInstType_0::InstPrefetch            0      0.00%    100.00% # Number of instructions issued per FU type, per thread (Count)
system.cpu.statIssuedInstType_0::SimdUnitStrideLoad            0      0.00%    100.00% # Number of instructions issued per FU type, per thread (Count)
system.cpu.statIssuedInstType_0::SimdUnitStrideStore            0      0.00%    100.00% # Number of instructions issued per FU type, per thread (Count)
system.cpu.statIssuedInstType_0::SimdUnitStrideMaskLoad            0      0.00%    100.00% # Number of instructions issued per FU type, per thread (Count)
system.cpu.statIssuedInstType_0::SimdUnitStrideMaskStore            0      0.00%    100.00% # Number of instructions issued per FU type, per thread (Count)
system.cpu.statIssuedInstType_0::SimdStridedLoad            0      0.00%    100.00% # Number of instructions issued per FU type, per thread (Count)
system.cpu.statIssuedInstType_0::SimdStridedStore            0      0.00%    100.00% # Number of instructions issued per FU type, per thread (Count)
system.cpu.statIssuedInstType_0::SimdIndexedLoad            0      0.00%    100.00% # Number of instructions issued per FU type, per thread (Count)
system.cpu.statIssuedInstType_0::SimdIndexedStore            0      0.00%    100.00% # Number of instructions issued per FU type, per thread (Count)
system.cpu.statIssuedInstType_0::SimdWholeRegisterLoad            0      0.00%    100.00% # Number of instructions issued per FU type, per thread (Count)
system.cpu.statIssuedInstType_0::SimdWholeRegisterStore            0      0.00%    100.00% # Number of instructions issued per FU type, per thread (Count)
system.cpu.statIssuedInstType_0::SimdUnitStrideFaultOnlyFirstLoad            0      0.00%    100.00% # Number of instructions issued per FU type, per thread (Count)
system.cpu.statIssuedInstType_0::SimdUnitStrideSegmentedLoad            0      0.00%    100.00% # Number of instructions issued per FU type, per thread (Count)
system.cpu.statIssuedInstType_0::SimdUnitStrideSegmentedStore            0      0.00%    100.00% # Number of instructions issued per FU type, per thread (Count)
system.cpu.statIssuedInstType_0::SimdExt            0      0.00%    100.00% # Number of instructions issued per FU type, per thread (Count)
system.cpu.statIssuedInstType_0::SimdFloatExt            0      0.00%    100.00% # Number of instructions issued per FU type, per thread (Count)
system.cpu.statIssuedInstType_0::SimdConfig            0      0.00%    100.00% # Number of instructions issued per FU type, per thread (Count)
system.cpu.statIssuedInstType_0::total      288250673                       # Number of instructions issued per FU type, per thread (Count)
system.cpu.issueRate                         3.732275                       # Inst issue rate ((Count/Cycle))
system.cpu.fuBusy                             8309403                       # FU busy when requested (Count)
system.cpu.fuBusyRate                        0.028827                       # FU busy rate (busy events/executed inst) ((Count/Count))
system.cpu.intInstQueueReads                653863029                       # Number of integer instruction queue reads (Count)
system.cpu.intInstQueueWrites               408350934                       # Number of integer instruction queue writes (Count)
system.cpu.intInstQueueWakeupAccesses       277905730                       # Number of integer instruction queue wakeup accesses (Count)
system.cpu.fpInstQueueReads                   9551845                       # Number of floating instruction queue reads (Count)
system.cpu.fpInstQueueWrites                  6474135                       # Number of floating instruction queue writes (Count)
system.cpu.fpInstQueueWakeupAccesses          4549271                       # Number of floating instruction queue wakeup accesses (Count)
system.cpu.vecInstQueueReads                        0                       # Number of vector instruction queue reads (Count)
system.cpu.vecInstQueueWrites                       0                       # Number of vector instruction queue writes (Count)
system.cpu.vecInstQueueWakeupAccesses               0                       # Number of vector instruction queue wakeup accesses (Count)
system.cpu.intAluAccesses                   289644312                       # Number of integer alu accesses (Count)
system.cpu.fpAluAccesses                      4779536                       # Number of floating point alu accesses (Count)
system.cpu.vecAluAccesses                           0                       # Number of vector alu accesses (Count)
system.cpu.numSquashedInsts                   3590674                       # Number of squashed instructions skipped in execute (Count)
system.cpu.numSwp                                   0                       # Number of swp insts executed (Count)
system.cpu.timesIdled                            2249                       # Number of times that the entire CPU went into an idle state and unscheduled itself (Count)
system.cpu.idleCycles                            9628                       # Total number of cycles that the CPU has spent unscheduled due to idling (Cycle)
system.cpu.MemDepUnit__0.insertedLoads       57454400                       # Number of loads inserted to the mem dependence unit. (Count)
system.cpu.MemDepUnit__0.insertedStores      20325026                       # Number of stores inserted to the mem dependence unit. (Count)
system.cpu.MemDepUnit__0.conflictingLoads      7076893                       # Number of conflicting loads. (Count)
system.cpu.MemDepUnit__0.conflictingStores      4552764                       # Number of conflicting stores. (Count)
system.cpu.MemDepUnit__1.insertedLoads              0                       # Number of loads inserted to the mem dependence unit. (Count)
system.cpu.MemDepUnit__1.insertedStores             0                       # Number of stores inserted to the mem dependence unit. (Count)
system.cpu.MemDepUnit__1.conflictingLoads            0                       # Number of conflicting loads. (Count)
system.cpu.MemDepUnit__1.conflictingStores            0                       # Number of conflicting stores. (Count)
system.cpu.MemDepUnit__2.insertedLoads              0                       # Number of loads inserted to the mem dependence unit. (Count)
system.cpu.MemDepUnit__2.insertedStores             0                       # Number of stores inserted to the mem dependence unit. (Count)
system.cpu.MemDepUnit__2.conflictingLoads            0                       # Number of conflicting loads. (Count)
system.cpu.MemDepUnit__2.conflictingStores            0                       # Number of conflicting stores. (Count)
system.cpu.MemDepUnit__3.insertedLoads              0                       # Number of loads inserted to the mem dependence unit. (Count)
system.cpu.MemDepUnit__3.insertedStores             0                       # Number of stores inserted to the mem dependence unit. (Count)
system.cpu.MemDepUnit__3.conflictingLoads            0                       # Number of conflicting loads. (Count)
system.cpu.MemDepUnit__3.conflictingStores            0                       # Number of conflicting stores. (Count)
system.cpu.branchPred.lookups_0::NoBranch         1839      0.00%      0.00% # Number of BP lookups (Count)
system.cpu.branchPred.lookups_0::Return       1915227      4.81%      4.81% # Number of BP lookups (Count)
system.cpu.branchPred.lookups_0::CallDirect      2147728      5.39%     10.21% # Number of BP lookups (Count)
system.cpu.branchPred.lookups_0::CallIndirect         2141      0.01%     10.21% # Number of BP lookups (Count)
system.cpu.branchPred.lookups_0::DirectCond     32958647     82.75%     92.96% # Number of BP lookups (Count)
system.cpu.branchPred.lookups_0::DirectUncond      2783728      6.99%     99.95% # Number of BP lookups (Count)
system.cpu.branchPred.lookups_0::IndirectCond            0      0.00%     99.95% # Number of BP lookups (Count)
system.cpu.branchPred.lookups_0::IndirectUncond        21599      0.05%    100.00% # Number of BP lookups (Count)
system.cpu.branchPred.lookups_0::total       39830909                       # Number of BP lookups (Count)
system.cpu.branchPred.squashes_0::NoBranch         1609      0.01%      0.01% # Number of branches that got squashed (completely removed) as an earlier branch was mispredicted. (Count)
system.cpu.branchPred.squashes_0::Return       602951      3.71%      3.72% # Number of branches that got squashed (completely removed) as an earlier branch was mispredicted. (Count)
system.cpu.branchPred.squashes_0::CallDirect       836838      5.14%      8.86% # Number of branches that got squashed (completely removed) as an earlier branch was mispredicted. (Count)
system.cpu.branchPred.squashes_0::CallIndirect          750      0.00%      8.86% # Number of branches that got squashed (completely removed) as an earlier branch was mispredicted. (Count)
system.cpu.branchPred.squashes_0::DirectCond     13317436     81.84%     90.71% # Number of branches that got squashed (completely removed) as an earlier branch was mispredicted. (Count)
system.cpu.branchPred.squashes_0::DirectUncond      1502271      9.23%     99.94% # Number of branches that got squashed (completely removed) as an earlier branch was mispredicted. (Count)
system.cpu.branchPred.squashes_0::IndirectCond            0      0.00%     99.94% # Number of branches that got squashed (completely removed) as an earlier branch was mispredicted. (Count)
system.cpu.branchPred.squashes_0::IndirectUncond        10098      0.06%    100.00% # Number of branches that got squashed (completely removed) as an earlier branch was mispredicted. (Count)
system.cpu.branchPred.squashes_0::total      16271953                       # Number of branches that got squashed (completely removed) as an earlier branch was mispredicted. (Count)
system.cpu.branchPred.corrected_0::NoBranch          388      0.03%      0.03% # Number of branches that got corrected but not yet commited. Branches get corrected by decode or after execute. Also a branch misprediction can be detected out-of-order. Therefore, a corrected branch might not end up beeing committed in case an even earlier branch was mispredicted (Count)
system.cpu.branchPred.corrected_0::Return         1129      0.08%      0.11% # Number of branches that got corrected but not yet commited. Branches get corrected by decode or after execute. Also a branch misprediction can be detected out-of-order. Therefore, a corrected branch might not end up beeing committed in case an even earlier branch was mispredicted (Count)
system.cpu.branchPred.corrected_0::CallDirect         1682      0.12%      0.24% # Number of branches that got corrected but not yet commited. Branches get corrected by decode or after execute. Also a branch misprediction can be detected out-of-order. Therefore, a corrected branch might not end up beeing committed in case an even earlier branch was mispredicted (Count)
system.cpu.branchPred.corrected_0::CallIndirect          261      0.02%      0.26% # Number of branches that got corrected but not yet commited. Branches get corrected by decode or after execute. Also a branch misprediction can be detected out-of-order. Therefore, a corrected branch might not end up beeing committed in case an even earlier branch was mispredicted (Count)
system.cpu.branchPred.corrected_0::DirectCond      1348812     99.56%     99.82% # Number of branches that got corrected but not yet commited. Branches get corrected by decode or after execute. Also a branch misprediction can be detected out-of-order. Therefore, a corrected branch might not end up beeing committed in case an even earlier branch was mispredicted (Count)
system.cpu.branchPred.corrected_0::DirectUncond         1015      0.07%     99.89% # Number of branches that got corrected but not yet commited. Branches get corrected by decode or after execute. Also a branch misprediction can be detected out-of-order. Therefore, a corrected branch might not end up beeing committed in case an even earlier branch was mispredicted (Count)
system.cpu.branchPred.corrected_0::IndirectCond            0      0.00%     99.89% # Number of branches that got corrected but not yet commited. Branches get corrected by decode or after execute. Also a branch misprediction can be detected out-of-order. Therefore, a corrected branch might not end up beeing committed in case an even earlier branch was mispredicted (Count)
system.cpu.branchPred.corrected_0::IndirectUncond         1476      0.11%    100.00% # Number of branches that got corrected but not yet commited. Branches get corrected by decode or after execute. Also a branch misprediction can be detected out-of-order. Therefore, a corrected branch might not end up beeing committed in case an even earlier branch was mispredicted (Count)
system.cpu.branchPred.corrected_0::total      1354763                       # Number of branches that got corrected but not yet commited. Branches get corrected by decode or after execute. Also a branch misprediction can be detected out-of-order. Therefore, a corrected branch might not end up beeing committed in case an even earlier branch was mispredicted (Count)
system.cpu.branchPred.earlyResteers_0::NoBranch            0                       # Number of branches that got redirected after decode. (Count)
system.cpu.branchPred.earlyResteers_0::Return            0                       # Number of branches that got redirected after decode. (Count)
system.cpu.branchPred.earlyResteers_0::CallDirect            0                       # Number of branches that got redirected after decode. (Count)
system.cpu.branchPred.earlyResteers_0::CallIndirect            0                       # Number of branches that got redirected after decode. (Count)
system.cpu.branchPred.earlyResteers_0::DirectCond            0                       # Number of branches that got redirected after decode. (Count)
system.cpu.branchPred.earlyResteers_0::DirectUncond            0                       # Number of branches that got redirected after decode. (Count)
system.cpu.branchPred.earlyResteers_0::IndirectCond            0                       # Number of branches that got redirected after decode. (Count)
system.cpu.branchPred.earlyResteers_0::IndirectUncond            0                       # Number of branches that got redirected after decode. (Count)
system.cpu.branchPred.earlyResteers_0::total            0                       # Number of branches that got redirected after decode. (Count)
system.cpu.branchPred.committed_0::NoBranch          230      0.00%      0.00% # Number of branches finally committed  (Count)
system.cpu.branchPred.committed_0::Return      1312275      5.57%      5.57% # Number of branches finally committed  (Count)
system.cpu.branchPred.committed_0::CallDirect      1310889      5.56%     11.14% # Number of branches finally committed  (Count)
system.cpu.branchPred.committed_0::CallIndirect         1391      0.01%     11.14% # Number of branches finally committed  (Count)
system.cpu.branchPred.committed_0::DirectCond     19641211     83.37%     94.51% # Number of branches finally committed  (Count)
system.cpu.branchPred.committed_0::DirectUncond      1281457      5.44%     99.95% # Number of branches finally committed  (Count)
system.cpu.branchPred.committed_0::IndirectCond            0      0.00%     99.95% # Number of branches finally committed  (Count)
system.cpu.branchPred.committed_0::IndirectUncond        11501      0.05%    100.00% # Number of branches finally committed  (Count)
system.cpu.branchPred.committed_0::total     23558954                       # Number of branches finally committed  (Count)
system.cpu.branchPred.mispredicted_0::NoBranch          230      0.02%      0.02% # Number of committed branches that were mispredicted. (Count)
system.cpu.branchPred.mispredicted_0::Return         1008      0.08%      0.09% # Number of committed branches that were mispredicted. (Count)
system.cpu.branchPred.mispredicted_0::CallDirect         1128      0.09%      0.18% # Number of committed branches that were mispredicted. (Count)
system.cpu.branchPred.mispredicted_0::CallIndirect          231      0.02%      0.20% # Number of committed branches that were mispredicted. (Count)
system.cpu.branchPred.mispredicted_0::DirectCond      1318593     99.64%     99.84% # Number of committed branches that were mispredicted. (Count)
system.cpu.branchPred.mispredicted_0::DirectUncond          713      0.05%     99.89% # Number of committed branches that were mispredicted. (Count)
system.cpu.branchPred.mispredicted_0::IndirectCond            0      0.00%     99.89% # Number of committed branches that were mispredicted. (Count)
system.cpu.branchPred.mispredicted_0::IndirectUncond         1410      0.11%    100.00% # Number of committed branches that were mispredicted. (Count)
system.cpu.branchPred.mispredicted_0::total      1323313                       # Number of committed branches that were mispredicted. (Count)
system.cpu.branchPred.targetProvider_0::NoTarget     18014936     45.23%     45.23% # The component providing the target for taken branches (Count)
system.cpu.branchPred.targetProvider_0::BTB     19887610     49.93%     95.16% # The component providing the target for taken branches (Count)
system.cpu.branchPred.targetProvider_0::RAS      1915226      4.81%     99.97% # The component providing the target for taken branches (Count)
system.cpu.branchPred.targetProvider_0::Indirect        13137      0.03%    100.00% # The component providing the target for taken branches (Count)
system.cpu.branchPred.targetProvider_0::total     39830909                       # The component providing the target for taken branches (Count)
system.cpu.branchPred.targetWrong_0::NoBranch       568625     46.43%     46.43% # Number of branches where the target was incorrect or not available at prediction time. (Count)
system.cpu.branchPred.targetWrong_0::Return       654841     53.47%     99.90% # Number of branches where the target was incorrect or not available at prediction time. (Count)
system.cpu.branchPred.targetWrong_0::CallDirect         1129      0.09%     99.99% # Number of branches where the target was incorrect or not available at prediction time. (Count)
system.cpu.branchPred.targetWrong_0::CallIndirect          146      0.01%    100.00% # Number of branches where the target was incorrect or not available at prediction time. (Count)
system.cpu.branchPred.targetWrong_0::DirectCond            0      0.00%    100.00% # Number of branches where the target was incorrect or not available at prediction time. (Count)
system.cpu.branchPred.targetWrong_0::DirectUncond            0      0.00%    100.00% # Number of branches where the target was incorrect or not available at prediction time. (Count)
system.cpu.branchPred.targetWrong_0::IndirectCond            0      0.00%    100.00% # Number of branches where the target was incorrect or not available at prediction time. (Count)
system.cpu.branchPred.targetWrong_0::IndirectUncond            0      0.00%    100.00% # Number of branches where the target was incorrect or not available at prediction time. (Count)
system.cpu.branchPred.targetWrong_0::total      1224741                       # Number of branches where the target was incorrect or not available at prediction time. (Count)
system.cpu.branchPred.condPredicted          32960486                       # Number of conditional branches predicted (Count)
system.cpu.branchPred.condPredictedTaken     14967263                       # Number of conditional branches predicted as taken (Count)
system.cpu.branchPred.condIncorrect           1354763                       # Number of conditional branches incorrect (Count)
system.cpu.branchPred.predTakenBTBMiss           3724                       # Number of branches predicted taken but missed in BTB (Count)
system.cpu.branchPred.NotTakenMispredicted       629730                       # Number branches predicted 'not taken' but turned out to be taken (Count)
system.cpu.branchPred.TakenMispredicted        725033                       # Number branches predicted taken but are actually not taken (Count)
system.cpu.branchPred.BTBLookups             39830909                       # Number of BTB lookups (Count)
system.cpu.branchPred.BTBUpdates               626476                       # Number of BTB updates (Count)
system.cpu.branchPred.BTBHits                33030986                       # Number of BTB hits (Count)
system.cpu.branchPred.BTBHitRatio            0.829280                       # BTB Hit Ratio (Ratio)
system.cpu.branchPred.BTBMispredicted            4940                       # Number BTB mispredictions. No target found or target wrong (Count)
system.cpu.branchPred.indirectLookups           23740                       # Number of indirect predictor lookups. (Count)
system.cpu.branchPred.indirectHits              13137                       # Number of indirect target hits. (Count)
system.cpu.branchPred.indirectMisses            10603                       # Number of indirect misses. (Count)
system.cpu.branchPred.indirectMispredicted            0                       # Number of mispredicted indirect branches. (Count)
system.cpu.branchPred.btb.lookups::NoBranch         1839      0.00%      0.00% # Number of BTB lookups (Count)
system.cpu.branchPred.btb.lookups::Return      1915227      4.81%      4.81% # Number of BTB lookups (Count)
system.cpu.branchPred.btb.lookups::CallDirect      2147728      5.39%     10.21% # Number of BTB lookups (Count)
system.cpu.branchPred.btb.lookups::CallIndirect         2141      0.01%     10.21% # Number of BTB lookups (Count)
system.cpu.branchPred.btb.lookups::DirectCond     32958647     82.75%     92.96% # Number of BTB lookups (Count)
system.cpu.branchPred.btb.lookups::DirectUncond      2783728      6.99%     99.95% # Number of BTB lookups (Count)
system.cpu.branchPred.btb.lookups::IndirectCond            0      0.00%     99.95% # Number of BTB lookups (Count)
system.cpu.branchPred.btb.lookups::IndirectUncond        21599      0.05%    100.00% # Number of BTB lookups (Count)
system.cpu.branchPred.btb.lookups::total     39830909                       # Number of BTB lookups (Count)
system.cpu.branchPred.btb.misses::NoBranch          406      0.01%      0.01% # Number of BTB misses (Count)
system.cpu.branchPred.btb.misses::Return      1915227     28.17%     28.17% # Number of BTB misses (Count)
system.cpu.branchPred.btb.misses::CallDirect         2605      0.04%     28.21% # Number of BTB misses (Count)
system.cpu.branchPred.btb.misses::CallIndirect         2141      0.03%     28.24% # Number of BTB misses (Count)
system.cpu.branchPred.btb.misses::DirectCond      4856501     71.42%     99.66% # Number of BTB misses (Count)
system.cpu.branchPred.btb.misses::DirectUncond         1444      0.02%     99.68% # Number of BTB misses (Count)
system.cpu.branchPred.btb.misses::IndirectCond            0      0.00%     99.68% # Number of BTB misses (Count)
system.cpu.branchPred.btb.misses::IndirectUncond        21599      0.32%    100.00% # Number of BTB misses (Count)
system.cpu.branchPred.btb.misses::total       6799923                       # Number of BTB misses (Count)
system.cpu.branchPred.btb.updates::NoBranch            0      0.00%      0.00% # Number of BTB updates (Count)
system.cpu.branchPred.btb.updates::Return            0      0.00%      0.00% # Number of BTB updates (Count)
system.cpu.branchPred.btb.updates::CallDirect         1682      0.27%      0.27% # Number of BTB updates (Count)
system.cpu.branchPred.btb.updates::CallIndirect            0      0.00%      0.27% # Number of BTB updates (Count)
system.cpu.branchPred.btb.updates::DirectCond       623779     99.57%     99.84% # Number of BTB updates (Count)
system.cpu.branchPred.btb.updates::DirectUncond         1015      0.16%    100.00% # Number of BTB updates (Count)
system.cpu.branchPred.btb.updates::IndirectCond            0      0.00%    100.00% # Number of BTB updates (Count)
system.cpu.branchPred.btb.updates::IndirectUncond            0      0.00%    100.00% # Number of BTB updates (Count)
system.cpu.branchPred.btb.updates::total       626476                       # Number of BTB updates (Count)
system.cpu.branchPred.btb.mispredict::NoBranch            0      0.00%      0.00% # Number of BTB mispredictions. No target found or target wrong. (Count)
system.cpu.branchPred.btb.mispredict::Return            0      0.00%      0.00% # Number of BTB mispredictions. No target found or target wrong. (Count)
system.cpu.branchPred.btb.mispredict::CallDirect         1682      0.27%      0.27% # Number of BTB mispredictions. No target found or target wrong. (Count)
system.cpu.branchPred.btb.mispredict::CallIndirect            0      0.00%      0.27% # Number of BTB mispredictions. No target found or target wrong. (Count)
system.cpu.branchPred.btb.mispredict::DirectCond       623779     99.57%     99.84% # Number of BTB mispredictions. No target found or target wrong. (Count)
system.cpu.branchPred.btb.mispredict::DirectUncond         1015      0.16%    100.00% # Number of BTB mispredictions. No target found or target wrong. (Count)
system.cpu.branchPred.btb.mispredict::IndirectCond            0      0.00%    100.00% # Number of BTB mispredictions. No target found or target wrong. (Count)
system.cpu.branchPred.btb.mispredict::IndirectUncond            0      0.00%    100.00% # Number of BTB mispredictions. No target found or target wrong. (Count)
system.cpu.branchPred.btb.mispredict::total       626476                       # Number of BTB mispredictions. No target found or target wrong. (Count)
system.cpu.branchPred.btb.power_state.pwrStateResidencyTicks::UNDEFINED 1029732882701                       # Cumulative time (in ticks) in various power states (Tick)
system.cpu.branchPred.indirectBranchPred.lookups        23740                       # Number of lookups (Count)
system.cpu.branchPred.indirectBranchPred.hits        13137                       # Number of hits of a tag (Count)
system.cpu.branchPred.indirectBranchPred.misses        10603                       # Number of misses (Count)
system.cpu.branchPred.indirectBranchPred.targetRecords         1737                       # Number of targets that where recorded/installed in the cache (Count)
system.cpu.branchPred.indirectBranchPred.indirectRecords        25477                       # Number of indirect branches/calls recorded in the indirect hist (Count)
system.cpu.branchPred.indirectBranchPred.speculativeOverflows            1                       # Number of times more than the allowed capacity for speculative branches/calls where in flight and destroy the path history (Count)
system.cpu.branchPred.ras.pushes              2752820                       # Number of times a PC was pushed onto the RAS (Count)
system.cpu.branchPred.ras.pops                2752815                       # Number of times a PC was poped from the RAS (Count)
system.cpu.branchPred.ras.squashes            1440539                       # Number of times the stack operation was squashed due to wrong speculation. (Count)
system.cpu.branchPred.ras.used                1312275                       # Number of times the RAS is the provider (Count)
system.cpu.branchPred.ras.correct             1311267                       # Number of times the RAS is the provider and the prediction is correct (Count)
system.cpu.branchPred.ras.incorrect              1008                       # Number of times the RAS is the provider and the prediction is wrong (Count)
system.cpu.commit.commitSquashedInsts        95742233                       # The number of squashed insts skipped by commit (Count)
system.cpu.commit.commitNonSpecStalls          269812                       # The number of times commit has been forced to stall to communicate backwards (Count)
system.cpu.commit.branchMispredicts           1352118                       # The number of times a branch was mispredicted (Count)
system.cpu.commit.numCommittedDist::samples     64532785                       # Number of insts commited each cycle (Count)
system.cpu.commit.numCommittedDist::mean     3.457088                       # Number of insts commited each cycle (Count)
system.cpu.commit.numCommittedDist::stdev     3.332086                       # Number of insts commited each cycle (Count)
system.cpu.commit.numCommittedDist::underflows            0      0.00%      0.00% # Number of insts commited each cycle (Count)
system.cpu.commit.numCommittedDist::0        18246629     28.27%     28.27% # Number of insts commited each cycle (Count)
system.cpu.commit.numCommittedDist::1        10320894     15.99%     44.27% # Number of insts commited each cycle (Count)
system.cpu.commit.numCommittedDist::2         4820832      7.47%     51.74% # Number of insts commited each cycle (Count)
system.cpu.commit.numCommittedDist::3         6027681      9.34%     61.08% # Number of insts commited each cycle (Count)
system.cpu.commit.numCommittedDist::4         2111429      3.27%     64.35% # Number of insts commited each cycle (Count)
system.cpu.commit.numCommittedDist::5         1250003      1.94%     66.29% # Number of insts commited each cycle (Count)
system.cpu.commit.numCommittedDist::6          926984      1.44%     67.72% # Number of insts commited each cycle (Count)
system.cpu.commit.numCommittedDist::7         1834395      2.84%     70.57% # Number of insts commited each cycle (Count)
system.cpu.commit.numCommittedDist::8        18993938     29.43%    100.00% # Number of insts commited each cycle (Count)
system.cpu.commit.numCommittedDist::overflows            0      0.00%    100.00% # Number of insts commited each cycle (Count)
system.cpu.commit.numCommittedDist::min_value            0                       # Number of insts commited each cycle (Count)
system.cpu.commit.numCommittedDist::max_value            8                       # Number of insts commited each cycle (Count)
system.cpu.commit.numCommittedDist::total     64532785                       # Number of insts commited each cycle (Count)
system.cpu.commit.amos                              0                       # Number of atomic instructions committed (Count)
system.cpu.commit.membars                      179362                       # Number of memory barriers committed (Count)
system.cpu.commit.functionCalls               1312280                       # Number of function calls committed. (Count)
system.cpu.commit.committedInstType_0::No_OpClass      1556693      0.70%      0.70% # Class of committed instruction (Count)
system.cpu.commit.committedInstType_0::IntAlu    157899208     70.78%     71.47% # Class of committed instruction (Count)
system.cpu.commit.committedInstType_0::IntMult       835513      0.37%     71.85% # Class of committed instruction (Count)
system.cpu.commit.committedInstType_0::IntDiv      5120371      2.30%     74.14% # Class of committed instruction (Count)
system.cpu.commit.committedInstType_0::FloatAdd         7587      0.00%     74.15% # Class of committed instruction (Count)
system.cpu.commit.committedInstType_0::FloatCmp            0      0.00%     74.15% # Class of committed instruction (Count)
system.cpu.commit.committedInstType_0::FloatCvt         1344      0.00%     74.15% # Class of committed instruction (Count)
system.cpu.commit.committedInstType_0::FloatMult            0      0.00%     74.15% # Class of committed instruction (Count)
system.cpu.commit.committedInstType_0::FloatMultAcc            0      0.00%     74.15% # Class of committed instruction (Count)
system.cpu.commit.committedInstType_0::FloatDiv            0      0.00%     74.15% # Class of committed instruction (Count)
system.cpu.commit.committedInstType_0::FloatMisc            0      0.00%     74.15% # Class of committed instruction (Count)
system.cpu.commit.committedInstType_0::FloatSqrt            0      0.00%     74.15% # Class of committed instruction (Count)
system.cpu.commit.committedInstType_0::SimdAdd         6776      0.00%     74.15% # Class of committed instruction (Count)
system.cpu.commit.committedInstType_0::SimdAddAcc            0      0.00%     74.15% # Class of committed instruction (Count)
system.cpu.commit.committedInstType_0::SimdAlu      1181862      0.53%     74.68% # Class of committed instruction (Count)
system.cpu.commit.committedInstType_0::SimdCmp            6      0.00%     74.68% # Class of committed instruction (Count)
system.cpu.commit.committedInstType_0::SimdCvt        13604      0.01%     74.69% # Class of committed instruction (Count)
system.cpu.commit.committedInstType_0::SimdMisc        14253      0.01%     74.69% # Class of committed instruction (Count)
system.cpu.commit.committedInstType_0::SimdMult            0      0.00%     74.69% # Class of committed instruction (Count)
system.cpu.commit.committedInstType_0::SimdMultAcc            0      0.00%     74.69% # Class of committed instruction (Count)
system.cpu.commit.committedInstType_0::SimdMatMultAcc            0      0.00%     74.69% # Class of committed instruction (Count)
system.cpu.commit.committedInstType_0::SimdShift         1580      0.00%     74.69% # Class of committed instruction (Count)
system.cpu.commit.committedInstType_0::SimdShiftAcc            0      0.00%     74.69% # Class of committed instruction (Count)
system.cpu.commit.committedInstType_0::SimdDiv            0      0.00%     74.69% # Class of committed instruction (Count)
system.cpu.commit.committedInstType_0::SimdSqrt            0      0.00%     74.69% # Class of committed instruction (Count)
system.cpu.commit.committedInstType_0::SimdFloatAdd          113      0.00%     74.69% # Class of committed instruction (Count)
system.cpu.commit.committedInstType_0::SimdFloatAlu            0      0.00%     74.69% # Class of committed instruction (Count)
system.cpu.commit.committedInstType_0::SimdFloatCmp            0      0.00%     74.69% # Class of committed instruction (Count)
system.cpu.commit.committedInstType_0::SimdFloatCvt          226      0.00%     74.69% # Class of committed instruction (Count)
system.cpu.commit.committedInstType_0::SimdFloatDiv          113      0.00%     74.69% # Class of committed instruction (Count)
system.cpu.commit.committedInstType_0::SimdFloatMisc            0      0.00%     74.69% # Class of committed instruction (Count)
system.cpu.commit.committedInstType_0::SimdFloatMult            0      0.00%     74.69% # Class of committed instruction (Count)
system.cpu.commit.committedInstType_0::SimdFloatMultAcc            0      0.00%     74.69% # Class of committed instruction (Count)
system.cpu.commit.committedInstType_0::SimdFloatMatMultAcc            0      0.00%     74.69% # Class of committed instruction (Count)
system.cpu.commit.committedInstType_0::SimdFloatSqrt            0      0.00%     74.69% # Class of committed instruction (Count)
system.cpu.commit.committedInstType_0::SimdReduceAdd            0      0.00%     74.69% # Class of committed instruction (Count)
system.cpu.commit.committedInstType_0::SimdReduceAlu            0      0.00%     74.69% # Class of committed instruction (Count)
system.cpu.commit.committedInstType_0::SimdReduceCmp            0      0.00%     74.69% # Class of committed instruction (Count)
system.cpu.commit.committedInstType_0::SimdFloatReduceAdd            0      0.00%     74.69% # Class of committed instruction (Count)
system.cpu.commit.committedInstType_0::SimdFloatReduceCmp            0      0.00%     74.69% # Class of committed instruction (Count)
system.cpu.commit.committedInstType_0::SimdAes            0      0.00%     74.69% # Class of committed instruction (Count)
system.cpu.commit.committedInstType_0::SimdAesMix            0      0.00%     74.69% # Class of committed instruction (Count)
system.cpu.commit.committedInstType_0::SimdSha1Hash            0      0.00%     74.69% # Class of committed instruction (Count)
system.cpu.commit.committedInstType_0::SimdSha1Hash2            0      0.00%     74.69% # Class of committed instruction (Count)
system.cpu.commit.committedInstType_0::SimdSha256Hash            0      0.00%     74.69% # Class of committed instruction (Count)
system.cpu.commit.committedInstType_0::SimdSha256Hash2            0      0.00%     74.69% # Class of committed instruction (Count)
system.cpu.commit.committedInstType_0::SimdShaSigma2            0      0.00%     74.69% # Class of committed instruction (Count)
system.cpu.commit.committedInstType_0::SimdShaSigma3            0      0.00%     74.69% # Class of committed instruction (Count)
system.cpu.commit.committedInstType_0::SimdPredAlu            0      0.00%     74.69% # Class of committed instruction (Count)
system.cpu.commit.committedInstType_0::Matrix            0      0.00%     74.69% # Class of committed instruction (Count)
system.cpu.commit.committedInstType_0::MatrixMov            0      0.00%     74.69% # Class of committed instruction (Count)
system.cpu.commit.committedInstType_0::MatrixOP            0      0.00%     74.69% # Class of committed instruction (Count)
system.cpu.commit.committedInstType_0::MemRead     41352421     18.54%     93.23% # Class of committed instruction (Count)
system.cpu.commit.committedInstType_0::MemWrite     12375634      5.55%     98.78% # Class of committed instruction (Count)
system.cpu.commit.committedInstType_0::FloatMemRead       781128      0.35%     99.13% # Class of committed instruction (Count)
system.cpu.commit.committedInstType_0::FloatMemWrite      1947073      0.87%    100.00% # Class of committed instruction (Count)
system.cpu.commit.committedInstType_0::IprAccess            0      0.00%    100.00% # Class of committed instruction (Count)
system.cpu.commit.committedInstType_0::InstPrefetch            0      0.00%    100.00% # Class of committed instruction (Count)
system.cpu.commit.committedInstType_0::SimdUnitStrideLoad            0      0.00%    100.00% # Class of committed instruction (Count)
system.cpu.commit.committedInstType_0::SimdUnitStrideStore            0      0.00%    100.00% # Class of committed instruction (Count)
system.cpu.commit.committedInstType_0::SimdUnitStrideMaskLoad            0      0.00%    100.00% # Class of committed instruction (Count)
system.cpu.commit.committedInstType_0::SimdUnitStrideMaskStore            0      0.00%    100.00% # Class of committed instruction (Count)
system.cpu.commit.committedInstType_0::SimdStridedLoad            0      0.00%    100.00% # Class of committed instruction (Count)
system.cpu.commit.committedInstType_0::SimdStridedStore            0      0.00%    100.00% # Class of committed instruction (Count)
system.cpu.commit.committedInstType_0::SimdIndexedLoad            0      0.00%    100.00% # Class of committed instruction (Count)
system.cpu.commit.committedInstType_0::SimdIndexedStore            0      0.00%    100.00% # Class of committed instruction (Count)
system.cpu.commit.committedInstType_0::SimdWholeRegisterLoad            0      0.00%    100.00% # Class of committed instruction (Count)
system.cpu.commit.committedInstType_0::SimdWholeRegisterStore            0      0.00%    100.00% # Class of committed instruction (Count)
system.cpu.commit.committedInstType_0::SimdUnitStrideFaultOnlyFirstLoad            0      0.00%    100.00% # Class of committed instruction (Count)
system.cpu.commit.committedInstType_0::SimdUnitStrideSegmentedLoad            0      0.00%    100.00% # Class of committed instruction (Count)
system.cpu.commit.committedInstType_0::SimdUnitStrideSegmentedStore            0      0.00%    100.00% # Class of committed instruction (Count)
system.cpu.commit.committedInstType_0::SimdExt            0      0.00%    100.00% # Class of committed instruction (Count)
system.cpu.commit.committedInstType_0::SimdFloatExt            0      0.00%    100.00% # Class of committed instruction (Count)
system.cpu.commit.committedInstType_0::SimdConfig            0      0.00%    100.00% # Class of committed instruction (Count)
system.cpu.commit.committedInstType_0::total    223095505                       # Class of committed instruction (Count)
system.cpu.commit.commitEligibleSamples      18993938                       # number cycles where commit BW limit reached (Cycle)
system.cpu.commitStats0.numInsts            119047035                       # Number of instructions committed (thread level) (Count)
system.cpu.commitStats0.numOps              223095505                       # Number of ops (including micro ops) committed (thread level) (Count)
system.cpu.commitStats0.numInstsNotNOP      119047035                       # Number of instructions committed excluding NOPs or prefetches (Count)
system.cpu.commitStats0.numOpsNotNOP        223095505                       # Number of Ops (including micro ops) Simulated (Count)
system.cpu.commitStats0.cpi                  0.648751                       # CPI: cycles per instruction (thread level) ((Cycle/Count))
system.cpu.commitStats0.ipc                  1.541423                       # IPC: instructions per cycle (thread level) ((Count/Cycle))
system.cpu.commitStats0.numMemRefs           56456256                       # Number of memory references committed (Count)
system.cpu.commitStats0.numFpInsts            3960023                       # Number of float instructions (Count)
system.cpu.commitStats0.numIntInsts         218988655                       # Number of integer instructions (Count)
system.cpu.commitStats0.numLoadInsts         42133549                       # Number of load instructions (Count)
system.cpu.commitStats0.numStoreInsts        14322707                       # Number of store instructions (Count)
system.cpu.commitStats0.numVecInsts                 0                       # Number of vector instructions (Count)
system.cpu.commitStats0.committedInstType::No_OpClass      1556693      0.70%      0.70% # Class of committed instruction. (Count)
system.cpu.commitStats0.committedInstType::IntAlu    157899208     70.78%     71.47% # Class of committed instruction. (Count)
system.cpu.commitStats0.committedInstType::IntMult       835513      0.37%     71.85% # Class of committed instruction. (Count)
system.cpu.commitStats0.committedInstType::IntDiv      5120371      2.30%     74.14% # Class of committed instruction. (Count)
system.cpu.commitStats0.committedInstType::FloatAdd         7587      0.00%     74.15% # Class of committed instruction. (Count)
system.cpu.commitStats0.committedInstType::FloatCmp            0      0.00%     74.15% # Class of committed instruction. (Count)
system.cpu.commitStats0.committedInstType::FloatCvt         1344      0.00%     74.15% # Class of committed instruction. (Count)
system.cpu.commitStats0.committedInstType::FloatMult            0      0.00%     74.15% # Class of committed instruction. (Count)
system.cpu.commitStats0.committedInstType::FloatMultAcc            0      0.00%     74.15% # Class of committed instruction. (Count)
system.cpu.commitStats0.committedInstType::FloatDiv            0      0.00%     74.15% # Class of committed instruction. (Count)
system.cpu.commitStats0.committedInstType::FloatMisc            0      0.00%     74.15% # Class of committed instruction. (Count)
system.cpu.commitStats0.committedInstType::FloatSqrt            0      0.00%     74.15% # Class of committed instruction. (Count)
system.cpu.commitStats0.committedInstType::SimdAdd         6776      0.00%     74.15% # Class of committed instruction. (Count)
system.cpu.commitStats0.committedInstType::SimdAddAcc            0      0.00%     74.15% # Class of committed instruction. (Count)
system.cpu.commitStats0.committedInstType::SimdAlu      1181862      0.53%     74.68% # Class of committed instruction. (Count)
system.cpu.commitStats0.committedInstType::SimdCmp            6      0.00%     74.68% # Class of committed instruction. (Count)
system.cpu.commitStats0.committedInstType::SimdCvt        13604      0.01%     74.69% # Class of committed instruction. (Count)
system.cpu.commitStats0.committedInstType::SimdMisc        14253      0.01%     74.69% # Class of committed instruction. (Count)
system.cpu.commitStats0.committedInstType::SimdMult            0      0.00%     74.69% # Class of committed instruction. (Count)
system.cpu.commitStats0.committedInstType::SimdMultAcc            0      0.00%     74.69% # Class of committed instruction. (Count)
system.cpu.commitStats0.committedInstType::SimdMatMultAcc            0      0.00%     74.69% # Class of committed instruction. (Count)
system.cpu.commitStats0.committedInstType::SimdShift         1580      0.00%     74.69% # Class of committed instruction. (Count)
system.cpu.commitStats0.committedInstType::SimdShiftAcc            0      0.00%     74.69% # Class of committed instruction. (Count)
system.cpu.commitStats0.committedInstType::SimdDiv            0      0.00%     74.69% # Class of committed instruction. (Count)
system.cpu.commitStats0.committedInstType::SimdSqrt            0      0.00%     74.69% # Class of committed instruction. (Count)
system.cpu.commitStats0.committedInstType::SimdFloatAdd          113      0.00%     74.69% # Class of committed instruction. (Count)
system.cpu.commitStats0.committedInstType::SimdFloatAlu            0      0.00%     74.69% # Class of committed instruction. (Count)
system.cpu.commitStats0.committedInstType::SimdFloatCmp            0      0.00%     74.69% # Class of committed instruction. (Count)
system.cpu.commitStats0.committedInstType::SimdFloatCvt          226      0.00%     74.69% # Class of committed instruction. (Count)
system.cpu.commitStats0.committedInstType::SimdFloatDiv          113      0.00%     74.69% # Class of committed instruction. (Count)
system.cpu.commitStats0.committedInstType::SimdFloatMisc            0      0.00%     74.69% # Class of committed instruction. (Count)
system.cpu.commitStats0.committedInstType::SimdFloatMult            0      0.00%     74.69% # Class of committed instruction. (Count)
system.cpu.commitStats0.committedInstType::SimdFloatMultAcc            0      0.00%     74.69% # Class of committed instruction. (Count)
system.cpu.commitStats0.committedInstType::SimdFloatMatMultAcc            0      0.00%     74.69% # Class of committed instruction. (Count)
system.cpu.commitStats0.committedInstType::SimdFloatSqrt            0      0.00%     74.69% # Class of committed instruction. (Count)
system.cpu.commitStats0.committedInstType::SimdReduceAdd            0      0.00%     74.69% # Class of committed instruction. (Count)
system.cpu.commitStats0.committedInstType::SimdReduceAlu            0      0.00%     74.69% # Class of committed instruction. (Count)
system.cpu.commitStats0.committedInstType::SimdReduceCmp            0      0.00%     74.69% # Class of committed instruction. (Count)
system.cpu.commitStats0.committedInstType::SimdFloatReduceAdd            0      0.00%     74.69% # Class of committed instruction. (Count)
system.cpu.commitStats0.committedInstType::SimdFloatReduceCmp            0      0.00%     74.69% # Class of committed instruction. (Count)
system.cpu.commitStats0.committedInstType::SimdAes            0      0.00%     74.69% # Class of committed instruction. (Count)
system.cpu.commitStats0.committedInstType::SimdAesMix            0      0.00%     74.69% # Class of committed instruction. (Count)
system.cpu.commitStats0.committedInstType::SimdSha1Hash            0      0.00%     74.69% # Class of committed instruction. (Count)
system.cpu.commitStats0.committedInstType::SimdSha1Hash2            0      0.00%     74.69% # Class of committed instruction. (Count)
system.cpu.commitStats0.committedInstType::SimdSha256Hash            0      0.00%     74.69% # Class of committed instruction. (Count)
system.cpu.commitStats0.committedInstType::SimdSha256Hash2            0      0.00%     74.69% # Class of committed instruction. (Count)
system.cpu.commitStats0.committedInstType::SimdShaSigma2            0      0.00%     74.69% # Class of committed instruction. (Count)
system.cpu.commitStats0.committedInstType::SimdShaSigma3            0      0.00%     74.69% # Class of committed instruction. (Count)
system.cpu.commitStats0.committedInstType::SimdPredAlu            0      0.00%     74.69% # Class of committed instruction. (Count)
system.cpu.commitStats0.committedInstType::Matrix            0      0.00%     74.69% # Class of committed instruction. (Count)
system.cpu.commitStats0.committedInstType::MatrixMov            0      0.00%     74.69% # Class of committed instruction. (Count)
system.cpu.commitStats0.committedInstType::MatrixOP            0      0.00%     74.69% # Class of committed instruction. (Count)
system.cpu.commitStats0.committedInstType::MemRead     41352421     18.54%     93.23% # Class of committed instruction. (Count)
system.cpu.commitStats0.committedInstType::MemWrite     12375634      5.55%     98.78% # Class of committed instruction. (Count)
system.cpu.commitStats0.committedInstType::FloatMemRead       781128      0.35%     99.13% # Class of committed instruction. (Count)
system.cpu.commitStats0.committedInstType::FloatMemWrite      1947073      0.87%    100.00% # Class of committed instruction. (Count)
system.cpu.commitStats0.committedInstType::IprAccess            0      0.00%    100.00% # Class of committed instruction. (Count)
system.cpu.commitStats0.committedInstType::InstPrefetch            0      0.00%    100.00% # Class of committed instruction. (Count)
system.cpu.commitStats0.committedInstType::SimdUnitStrideLoad            0      0.00%    100.00% # Class of committed instruction. (Count)
system.cpu.commitStats0.committedInstType::SimdUnitStrideStore            0      0.00%    100.00% # Class of committed instruction. (Count)
system.cpu.commitStats0.committedInstType::SimdUnitStrideMaskLoad            0      0.00%    100.00% # Class of committed instruction. (Count)
system.cpu.commitStats0.committedInstType::SimdUnitStrideMaskStore            0      0.00%    100.00% # Class of committed instruction. (Count)
system.cpu.commitStats0.committedInstType::SimdStridedLoad            0      0.00%    100.00% # Class of committed instruction. (Count)
system.cpu.commitStats0.committedInstType::SimdStridedStore            0      0.00%    100.00% # Class of committed instruction. (Count)
system.cpu.commitStats0.committedInstType::SimdIndexedLoad            0      0.00%    100.00% # Class of committed instruction. (Count)
system.cpu.commitStats0.committedInstType::SimdIndexedStore            0      0.00%    100.00% # Class of committed instruction. (Count)
system.cpu.commitStats0.committedInstType::SimdWholeRegisterLoad            0      0.00%    100.00% # Class of committed instruction. (Count)
system.cpu.commitStats0.committedInstType::SimdWholeRegisterStore            0      0.00%    100.00% # Class of committed instruction. (Count)
system.cpu.commitStats0.committedInstType::SimdUnitStrideFaultOnlyFirstLoad            0      0.00%    100.00% # Class of committed instruction. (Count)
system.cpu.commitStats0.committedInstType::SimdUnitStrideSegmentedLoad            0      0.00%    100.00% # Class of committed instruction. (Count)
system.cpu.commitStats0.committedInstType::SimdUnitStrideSegmentedStore            0      0.00%    100.00% # Class of committed instruction. (Count)
system.cpu.commitStats0.committedInstType::SimdExt            0      0.00%    100.00% # Class of committed instruction. (Count)
system.cpu.commitStats0.committedInstType::SimdFloatExt            0      0.00%    100.00% # Class of committed instruction. (Count)
system.cpu.commitStats0.committedInstType::SimdConfig            0      0.00%    100.00% # Class of committed instruction. (Count)
system.cpu.commitStats0.committedInstType::total    223095505                       # Class of committed instruction. (Count)
system.cpu.commitStats0.committedControl::IsControl     23558954                       # Class of control type instructions committed (Count)
system.cpu.commitStats0.committedControl::IsDirectControl     22233557                       # Class of control type instructions committed (Count)
system.cpu.commitStats0.committedControl::IsIndirectControl      1325167                       # Class of control type instructions committed (Count)
system.cpu.commitStats0.committedControl::IsCondControl     19641211                       # Class of control type instructions committed (Count)
system.cpu.commitStats0.committedControl::IsUncondControl      3917513                       # Class of control type instructions committed (Count)
system.cpu.commitStats0.committedControl::IsCall      1312280                       # Class of control type instructions committed (Count)
system.cpu.commitStats0.committedControl::IsReturn      1312275                       # Class of control type instructions committed (Count)
system.cpu.decode.idleCycles                  6627409                       # Number of cycles decode is idle (Cycle)
system.cpu.decode.blockedCycles              22192049                       # Number of cycles decode is blocked (Cycle)
system.cpu.decode.runCycles                  39714527                       # Number of cycles decode is running (Cycle)
system.cpu.decode.unblockCycles               7256673                       # Number of cycles decode is unblocking (Cycle)
system.cpu.decode.squashCycles                1431612                       # Number of cycles decode is squashing (Cycle)
system.cpu.decode.branchResolved             18494834                       # Number of times decode resolved a branch (Count)
system.cpu.decode.branchMispred                  2951                       # Number of times decode detected a branch misprediction (Count)
system.cpu.decode.decodedInsts              343866661                       # Number of instructions handled by decode (Count)
system.cpu.decode.squashedInsts                 15416                       # Number of squashed instructions handled by decode (Count)
system.cpu.executeStats0.numInsts           284659999                       # Number of executed instructions (Count)
system.cpu.executeStats0.numNop                     0                       # Number of nop insts executed (Count)
system.cpu.executeStats0.numBranches         28476952                       # Number of branches executed (Count)
system.cpu.executeStats0.numLoadInsts        51365204                       # Number of load instructions executed (Count)
system.cpu.executeStats0.numStoreInsts       17440487                       # Number of stores executed (Count)
system.cpu.executeStats0.instRate            3.685783                       # Inst execution rate ((Count/Cycle))
system.cpu.executeStats0.numCCRegReads      131038916                       # Number of times the CC registers were read (Count)
system.cpu.executeStats0.numCCRegWrites      97199177                       # Number of times the CC registers were written (Count)
system.cpu.executeStats0.numFpRegReads        4934477                       # Number of times the floating registers were read (Count)
system.cpu.executeStats0.numFpRegWrites       2454484                       # Number of times the floating registers were written (Count)
system.cpu.executeStats0.numIntRegReads     346973752                       # Number of times the integer registers were read (Count)
system.cpu.executeStats0.numIntRegWrites    220570251                       # Number of times the integer registers were written (Count)
system.cpu.executeStats0.numMemRefs          68805691                       # Number of memory refs (Count)
system.cpu.executeStats0.numMiscRegReads    127016914                       # Number of times the Misc registers were read (Count)
system.cpu.executeStats0.numMiscRegWrites          756                       # Number of times the Misc registers were written (Count)
system.cpu.executeStats0.numVecAluAccesses            0                       # Number of vector alu accesses (Count)
system.cpu.executeStats0.numDiscardedOps            0                       # Number of ops (including micro ops) which were discarded before commit (Count)
system.cpu.fetch.predictedBranches           21815973                       # Number of branches that fetch has predicted taken (Count)
system.cpu.fetch.cycles                      73920013                       # Number of cycles fetch has run and was not squashing or blocked (Cycle)
system.cpu.fetch.squashCycles                 2868948                       # Number of cycles fetch has spent squashing (Cycle)
system.cpu.fetch.miscStallCycles                  289                       # Number of cycles fetch has spent waiting on interrupts, or bad addresses, or out of MSHRs (Cycle)
system.cpu.fetch.pendingTrapStallCycles          2756                       # Number of stall cycles due to pending traps (Cycle)
system.cpu.fetch.cacheLines                  23111012                       # Number of cache lines fetched (Count)
[...]
system.mem_ctrl.dram.bwRead::total          248741117                       # Total read bandwidth from this memory ((Byte/Second))
system.mem_ctrl.dram.bwInstRead::cpu.inst    181677220                       # Instruction read bandwidth from this memory ((Byte/Second))
system.mem_ctrl.dram.bwInstRead::total      181677220                       # Instruction read bandwidth from this memory ((Byte/Second))
system.mem_ctrl.dram.bwWrite::writebacks     33316901                       # Write bandwidth from this memory ((Byte/Second))
system.mem_ctrl.dram.bwWrite::total          33316901                       # Write bandwidth from this memory ((Byte/Second))
system.mem_ctrl.dram.bwTotal::writebacks     33316901                       # Total bandwidth to/from this memory ((Byte/Second))
system.mem_ctrl.dram.bwTotal::cpu.inst      181677220                       # Total bandwidth to/from this memory ((Byte/Second))
system.mem_ctrl.dram.bwTotal::cpu.data       67063897                       # Total bandwidth to/from this memory ((Byte/Second))
system.mem_ctrl.dram.bwTotal::total         282058018                       # Total bandwidth to/from this memory ((Byte/Second))
system.mem_ctrl.dram.readBursts                240710                       # Number of DRAM read bursts (Count)
system.mem_ctrl.dram.writeBursts                11369                       # Number of DRAM write bursts (Count)
system.mem_ctrl.dram.perBankRdBursts::0          2005                       # Per bank write bursts (Count)
system.mem_ctrl.dram.perBankRdBursts::1         15503                       # Per bank write bursts (Count)
system.mem_ctrl.dram.perBankRdBursts::2         21825                       # Per bank write bursts (Count)
system.mem_ctrl.dram.perBankRdBursts::3         39828                       # Per bank write bursts (Count)
system.mem_ctrl.dram.perBankRdBursts::4         29698                       # Per bank write bursts (Count)
system.mem_ctrl.dram.perBankRdBursts::5          8227                       # Per bank write bursts (Count)
system.mem_ctrl.dram.perBankRdBursts::6          6456                       # Per bank write bursts (Count)
system.mem_ctrl.dram.perBankRdBursts::7          3482                       # Per bank write bursts (Count)
system.mem_ctrl.dram.perBankRdBursts::8         10356                       # Per bank write bursts (Count)
system.mem_ctrl.dram.perBankRdBursts::9         19281                       # Per bank write bursts (Count)
system.mem_ctrl.dram.perBankRdBursts::10        14038                       # Per bank write bursts (Count)
system.mem_ctrl.dram.perBankRdBursts::11         1353                       # Per bank write bursts (Count)
system.mem_ctrl.dram.perBankRdBursts::12        13897                       # Per bank write bursts (Count)
system.mem_ctrl.dram.perBankRdBursts::13        28123                       # Per bank write bursts (Count)
system.mem_ctrl.dram.perBankRdBursts::14        25258                       # Per bank write bursts (Count)
system.mem_ctrl.dram.perBankRdBursts::15         1380                       # Per bank write bursts (Count)
system.mem_ctrl.dram.perBankWrBursts::0           275                       # Per bank write bursts (Count)
system.mem_ctrl.dram.perBankWrBursts::1          1526                       # Per bank write bursts (Count)
system.mem_ctrl.dram.perBankWrBursts::2           295                       # Per bank write bursts (Count)
system.mem_ctrl.dram.perBankWrBursts::3          3524                       # Per bank write bursts (Count)
system.mem_ctrl.dram.perBankWrBursts::4           545                       # Per bank write bursts (Count)
system.mem_ctrl.dram.perBankWrBursts::5           625                       # Per bank write bursts (Count)
system.mem_ctrl.dram.perBankWrBursts::6          1007                       # Per bank write bursts (Count)
system.mem_ctrl.dram.perBankWrBursts::7           263                       # Per bank write bursts (Count)
system.mem_ctrl.dram.perBankWrBursts::8           482                       # Per bank write bursts (Count)
system.mem_ctrl.dram.perBankWrBursts::9           422                       # Per bank write bursts (Count)
system.mem_ctrl.dram.perBankWrBursts::10          509                       # Per bank write bursts (Count)
system.mem_ctrl.dram.perBankWrBursts::11          643                       # Per bank write bursts (Count)
system.mem_ctrl.dram.perBankWrBursts::12          429                       # Per bank write bursts (Count)
system.mem_ctrl.dram.perBankWrBursts::13          258                       # Per bank write bursts (Count)
system.mem_ctrl.dram.perBankWrBursts::14          292                       # Per bank write bursts (Count)
system.mem_ctrl.dram.perBankWrBursts::15          274                       # Per bank write bursts (Count)
system.mem_ctrl.dram.totQLat               2591426572                       # Total ticks spent queuing (Tick)
system.mem_ctrl.dram.totBusLat             1203550000                       # Total ticks spent in databus transfers (Tick)
system.mem_ctrl.dram.totMemAccLat          7104739072                       # Total ticks spent from burst creation until serviced by the DRAM (Tick)
system.mem_ctrl.dram.avgQLat                 10765.76                       # Average queueing delay per DRAM burst ((Tick/Count))
system.mem_ctrl.dram.avgBusLat                5000.00                       # Average bus latency per DRAM burst ((Tick/Count))
system.mem_ctrl.dram.avgMemAccLat            29515.76                       # Average memory access latency per DRAM burst ((Tick/Count))
system.mem_ctrl.dram.readRowHits               156509                       # Number of row buffer hits during reads (Count)
system.mem_ctrl.dram.writeRowHits                9749                       # Number of row buffer hits during writes (Count)
system.mem_ctrl.dram.readRowHitRate             65.02                       # Row buffer hit rate for reads (Ratio)
system.mem_ctrl.dram.writeRowHitRate            85.75                       # Row buffer hit rate for writes (Ratio)
system.mem_ctrl.dram.bytesPerActivate::samples        85822                       # Bytes accessed per row activation (Byte)
system.mem_ctrl.dram.bytesPerActivate::mean   187.980518                       # Bytes accessed per row activation (Byte)
system.mem_ctrl.dram.bytesPerActivate::gmean   127.465608                       # Bytes accessed per row activation (Byte)
system.mem_ctrl.dram.bytesPerActivate::stdev   203.373990                       # Bytes accessed per row activation (Byte)
system.mem_ctrl.dram.bytesPerActivate::0-127        41895     48.82%     48.82% # Bytes accessed per row activation (Byte)
system.mem_ctrl.dram.bytesPerActivate::128-255        21658     25.24%     74.05% # Bytes accessed per row activation (Byte)
system.mem_ctrl.dram.bytesPerActivate::256-383         9572     11.15%     85.21% # Bytes accessed per row activation (Byte)
system.mem_ctrl.dram.bytesPerActivate::384-511         5283      6.16%     91.36% # Bytes accessed per row activation (Byte)
system.mem_ctrl.dram.bytesPerActivate::512-639         2256      2.63%     93.99% # Bytes accessed per row activation (Byte)
system.mem_ctrl.dram.bytesPerActivate::640-767         1978      2.30%     96.29% # Bytes accessed per row activation (Byte)
system.mem_ctrl.dram.bytesPerActivate::768-895         1094      1.27%     97.57% # Bytes accessed per row activation (Byte)
system.mem_ctrl.dram.bytesPerActivate::896-1023          613      0.71%     98.28% # Bytes accessed per row activation (Byte)
system.mem_ctrl.dram.bytesPerActivate::1024-1151         1473      1.72%    100.00% # Bytes accessed per row activation (Byte)
system.mem_ctrl.dram.bytesPerActivate::total        85822                       # Bytes accessed per row activation (Byte)
system.mem_ctrl.dram.dramBytesRead           15405440                       # Total bytes read (Byte)
system.mem_ctrl.dram.dramBytesWritten          727616                       # Total bytes written (Byte)
system.mem_ctrl.dram.avgRdBW               220.273323                       # Average DRAM read bandwidth in MiBytes/s ((Byte/Second))
system.mem_ctrl.dram.avgWrBW                10.403753                       # Average DRAM write bandwidth in MiBytes/s ((Byte/Second))
system.mem_ctrl.dram.peakBW                  12800.00                       # Theoretical peak bandwidth in MiByte/s ((Byte/Second))
system.mem_ctrl.dram.busUtil                     1.80                       # Data bus utilization in percentage (Ratio)
system.mem_ctrl.dram.busUtilRead                 1.72                       # Data bus utilization in percentage for reads (Ratio)
system.mem_ctrl.dram.busUtilWrite                0.08                       # Data bus utilization in percentage for writes (Ratio)
system.mem_ctrl.dram.pageHitRate                65.95                       # Row buffer hit rate, read and write combined (Ratio)
system.mem_ctrl.dram.power_state.pwrStateResidencyTicks::UNDEFINED  69937838177                       # Cumulative time (in ticks) in various power states (Tick)
system.mem_ctrl.dram.rank0.actEnergy        350931000                       # Energy for activate commands per rank (pJ) (Joule)
system.mem_ctrl.dram.rank0.preEnergy        186531840                       # Energy for precharge commands per rank (pJ) (Joule)
system.mem_ctrl.dram.rank0.readEnergy       906951360                       # Energy for read commands per rank (pJ) (Joule)
system.mem_ctrl.dram.rank0.writeEnergy       42073200                       # Energy for write commands per rank (pJ) (Joule)
system.mem_ctrl.dram.rank0.refreshEnergy 5520696480.000001                       # Energy for refresh commands per rank (pJ) (Joule)
system.mem_ctrl.dram.rank0.actBackEnergy  25501430070                       # Energy for active background per rank (pJ) (Joule)
system.mem_ctrl.dram.rank0.preBackEnergy   5381241120                       # Energy for precharge background per rank (pJ) (Joule)
system.mem_ctrl.dram.rank0.actPowerDownEnergy            0                       # Energy for active power-down per rank (pJ) (Joule)
system.mem_ctrl.dram.rank0.prePowerDownEnergy            0                       # Energy for precharge power-down per rank (pJ) (Joule)
system.mem_ctrl.dram.rank0.selfRefreshEnergy            0                       # Energy for self refresh per rank (pJ) (Joule)
system.mem_ctrl.dram.rank0.totalEnergy    37889855070                       # Total energy per rank (pJ) (Joule)
system.mem_ctrl.dram.rank0.averagePower    541.764745                       # Core power per rank (mW) (Watt)
system.mem_ctrl.dram.rank0.totalIdleTime            0                       # Total Idle time Per DRAM Rank (Tick)
system.mem_ctrl.dram.rank0.pwrStateTime::IDLE  13766910112                       # Time in different power states (Tick)
system.mem_ctrl.dram.rank0.pwrStateTime::REF   2335320000                       # Time in different power states (Tick)
system.mem_ctrl.dram.rank0.pwrStateTime::SREF            0                       # Time in different power states (Tick)
system.mem_ctrl.dram.rank0.pwrStateTime::PRE_PDN            0                       # Time in different power states (Tick)
system.mem_ctrl.dram.rank0.pwrStateTime::ACT  53835608065                       # Time in different power states (Tick)
system.mem_ctrl.dram.rank0.pwrStateTime::ACT_PDN            0                       # Time in different power states (Tick)
system.mem_ctrl.dram.rank1.actEnergy        261830940                       # Energy for activate commands per rank (pJ) (Joule)
system.mem_ctrl.dram.rank1.preEnergy        139162650                       # Energy for precharge commands per rank (pJ) (Joule)
system.mem_ctrl.dram.rank1.readEnergy       811718040                       # Energy for read commands per rank (pJ) (Joule)
system.mem_ctrl.dram.rank1.writeEnergy       17272980                       # Energy for write commands per rank (pJ) (Joule)
system.mem_ctrl.dram.rank1.refreshEnergy 5520696480.000001                       # Energy for refresh commands per rank (pJ) (Joule)
system.mem_ctrl.dram.rank1.actBackEnergy  28012950960                       # Energy for active background per rank (pJ) (Joule)
system.mem_ctrl.dram.rank1.preBackEnergy   3266276160                       # Energy for precharge background per rank (pJ) (Joule)
system.mem_ctrl.dram.rank1.actPowerDownEnergy            0                       # Energy for active power-down per rank (pJ) (Joule)
system.mem_ctrl.dram.rank1.prePowerDownEnergy            0                       # Energy for precharge power-down per rank (pJ) (Joule)
system.mem_ctrl.dram.rank1.selfRefreshEnergy            0                       # Energy for self refresh per rank (pJ) (Joule)
system.mem_ctrl.dram.rank1.totalEnergy    38029908210                       # Total energy per rank (pJ) (Joule)
system.mem_ctrl.dram.rank1.averagePower    543.767283                       # Core power per rank (mW) (Watt)
system.mem_ctrl.dram.rank1.totalIdleTime            0                       # Total Idle time Per DRAM Rank (Tick)
system.mem_ctrl.dram.rank1.pwrStateTime::IDLE   8255426439                       # Time in different power states (Tick)
system.mem_ctrl.dram.rank1.pwrStateTime::REF   2335320000                       # Time in different power states (Tick)
system.mem_ctrl.dram.rank1.pwrStateTime::SREF            0                       # Time in different power states (Tick)
system.mem_ctrl.dram.rank1.pwrStateTime::PRE_PDN            0                       # Time in different power states (Tick)
system.mem_ctrl.dram.rank1.pwrStateTime::ACT  59347091738                       # Time in different power states (Tick)
system.mem_ctrl.dram.rank1.pwrStateTime::ACT_PDN            0                       # Time in different power states (Tick)
system.mem_ctrl.power_state.pwrStateResidencyTicks::UNDEFINED  69937838177                       # Cumulative time (in ticks) in various power states (Tick)
system.membus.transDist::ReadResp              249925                       # Transaction distribution (Count)
system.membus.transDist::WritebackDirty         36408                       # Transaction distribution (Count)
system.membus.transDist::CleanEvict            235412                       # Transaction distribution (Count)
system.membus.transDist::UpgradeReq                 1                       # Transaction distribution (Count)
system.membus.transDist::ReadExReq              21896                       # Transaction distribution (Count)
system.membus.transDist::ReadExResp             21896                       # Transaction distribution (Count)
system.membus.transDist::ReadSharedReq         249924                       # Transaction distribution (Count)
system.membus.pktCount_system.cpu.l1d.mem_side_port::system.mem_ctrl.port       219859                       # Packet count per connected requestor and responder (Count)
system.membus.pktCount_system.cpu.l1d.mem_side_port::total       219859                       # Packet count per connected requestor and responder (Count)
system.membus.pktCount_system.cpu.l1i.mem_side_port::system.mem_ctrl.port       595602                       # Packet count per connected requestor and responder (Count)
system.membus.pktCount_system.cpu.l1i.mem_side_port::total       595602                       # Packet count per connected requestor and responder (Count)
system.membus.pktCount::total                  815461                       # Packet count per connected requestor and responder (Count)
system.membus.pktSize_system.cpu.l1d.mem_side_port::system.mem_ctrl.port      7020416                       # Cumulative packet size per connected requestor and responder (Byte)
system.membus.pktSize_system.cpu.l1d.mem_side_port::total      7020416                       # Cumulative packet size per connected requestor and responder (Byte)
system.membus.pktSize_system.cpu.l1i.mem_side_port::system.mem_ctrl.port     12706176                       # Cumulative packet size per connected requestor and responder (Byte)
system.membus.pktSize_system.cpu.l1i.mem_side_port::total     12706176                       # Cumulative packet size per connected requestor and responder (Byte)
system.membus.pktSize::total                 19726592                       # Cumulative packet size per connected requestor and responder (Byte)
system.membus.snoops                                1                       # Total snoops (Count)
system.membus.snoopTraffic                         64                       # Total snoop traffic (Byte)
system.membus.snoopFanout::samples             271821                       # Request fanout histogram (Count)
system.membus.snoopFanout::mean              0.000324                       # Request fanout histogram (Count)
system.membus.snoopFanout::stdev             0.017990                       # Request fanout histogram (Count)
system.membus.snoopFanout::underflows               0      0.00%      0.00% # Request fanout histogram (Count)
system.membus.snoopFanout::0                   271733     99.97%     99.97% # Request fanout histogram (Count)
system.membus.snoopFanout::1                       88      0.03%    100.00% # Request fanout histogram (Count)
system.membus.snoopFanout::2                        0      0.00%    100.00% # Request fanout histogram (Count)
system.membus.snoopFanout::overflows                0      0.00%    100.00% # Request fanout histogram (Count)
system.membus.snoopFanout::min_value                0                       # Request fanout histogram (Count)
system.membus.snoopFanout::max_value                1                       # Request fanout histogram (Count)
system.membus.snoopFanout::total               271821                       # Request fanout histogram (Count)
system.membus.power_state.pwrStateResidencyTicks::UNDEFINED  69937838177                       # Cumulative time (in ticks) in various power states (Tick)
system.membus.reqLayer2.occupancy          9190076909                       # Layer occupancy (ticks) (Tick)
system.membus.reqLayer2.utilization               0.1                       # Layer utilization (Ratio)
system.membus.respLayer2.occupancy         5024326712                       # Layer occupancy (ticks) (Tick)
system.membus.respLayer2.utilization              0.1                       # Layer utilization (Ratio)
system.membus.respLayer3.occupancy        13497194034                       # Layer occupancy (ticks) (Tick)
system.membus.respLayer3.utilization              0.2                       # Layer utilization (Ratio)
system.membus.snoop_filter.totRequests         543641                       # Total number of requests made to the snoop filter. (Count)
system.membus.snoop_filter.hitSingleRequests       271822                       # Number of requests hitting in the snoop filter with a single holder of the requested data. (Count)
system.membus.snoop_filter.hitMultiRequests           86                       # Number of requests hitting in the snoop filter with multiple (>1) holders of the requested data. (Count)
system.membus.snoop_filter.totSnoops                0                       # Total number of snoops made to the snoop filter. (Count)
system.membus.snoop_filter.hitSingleSnoops            0                       # Number of snoops hitting in the snoop filter with a single holder of the requested data. (Count)
system.membus.snoop_filter.hitMultiSnoops            0                       # Number of snoops hitting in the snoop filter with multiple (>1) holders of the requested data. (Count)
system.workload.inst.arm                            0                       # number of arm instructions executed (Count)
system.workload.inst.quiesce                        0                       # number of quiesce instructions executed (Count)

---------- End Simulation Statistics   ----------
