
---------- Begin Simulation Statistics ----------
simSeconds                                   1.266088                       # Number of seconds simulated (Second)
simTicks                                 1266087613685                       # Number of ticks simulated (Tick)
finalTick                                1266087613685                       # Number of ticks from beginning of simulation (restored from checkpoints and never reset) (Tick)
simFreq                                  1000000000000                       # The number of ticks per simulated second ((Tick/Second))
hostSeconds                                     64.15                       # Real time elapsed on the host (Second)
hostTickRate                              19735298959                       # The number of ticks simulated per host second (ticks/s) ((Tick/Second))
hostMemory                                    8633028                       # Number of bytes of host memory used (Byte)
simInsts                                     48083919                       # Number of instructions simulated (Count)
simOps                                      114805117                       # Number of ops (including micro ops) simulated (Count)
hostInstRate                                   749512                       # Simulator instruction rate (inst/s) ((Count/Second))
hostOpRate                                    1789535                       # Simulator op (including micro ops) rate (op/s) ((Count/Second))
system.clk_domain.clock                         13333                       # Clock period in ticks (Tick)
system.clk_domain.voltage_domain.voltage            1                       # Voltage in Volts (Volt)
system.cpu.numCycles                         94958945                       # Number of cpu cycles simulated (Cycle)
system.cpu.cpi                               1.974816                       # CPI: cycles per instruction (core level) ((Cycle/Count))
system.cpu.ipc                               0.506376                       # IPC: instructions per cycle (core level) ((Count/Cycle))
system.cpu.numWorkItemsStarted                      0                       # Number of work items this cpu started (Count)
system.cpu.numWorkItemsCompleted                    0                       # Number of work items this cpu completed (Count)
system.cpu.commitStats0.numInsts             48084952                       # Number of instructions committed (thread level) (Count)
system.cpu.commitStats0.numOps              114806347                       # Number of ops (including micro ops) committed (thread level) (Count)
system.cpu.commitStats0.numInstsNotNOP              0                       # Number of instructions committed excluding NOPs or prefetches (Count)
system.cpu.commitStats0.numOpsNotNOP                0                       # Number of Ops (including micro ops) Simulated (Count)
system.cpu.commitStats0.cpi                  1.974816                       # CPI: cycles per instruction (thread level) ((Cycle/Count))
system.cpu.commitStats0.ipc                  0.506376                       # IPC: instructions per cycle (thread level) ((Count/Cycle))
system.cpu.commitStats0.numMemRefs                  0                       # Number of memory references committed (Count)
system.cpu.commitStats0.numFpInsts             359899                       # Number of float instructions (Count)
system.cpu.commitStats0.numIntInsts         110338668                       # Number of integer instructions (Count)
system.cpu.commitStats0.numLoadInsts         13306449                       # Number of load instructions (Count)
system.cpu.commitStats0.numStoreInsts         4862545                       # Number of store instructions (Count)
system.cpu.commitStats0.numVecInsts                 0                       # Number of vector instructions (Count)
system.cpu.commitStats0.committedInstType::No_OpClass       197374      0.17%      0.17% # Class of committed instruction. (Count)
system.cpu.commitStats0.committedInstType::IntAlu     76582506     66.71%     66.88% # Class of committed instruction. (Count)
system.cpu.commitStats0.committedInstType::IntMult      1834419      1.60%     68.48% # Class of committed instruction. (Count)
system.cpu.commitStats0.committedInstType::IntDiv     17864373     15.56%     84.04% # Class of committed instruction. (Count)
system.cpu.commitStats0.committedInstType::FloatAdd         7407      0.01%     84.04% # Class of committed instruction. (Count)
system.cpu.commitStats0.committedInstType::FloatCmp            0      0.00%     84.04% # Class of committed instruction. (Count)
system.cpu.commitStats0.committedInstType::FloatCvt         1264      0.00%     84.04% # Class of committed instruction. (Count)
system.cpu.commitStats0.committedInstType::FloatMult            0      0.00%     84.04% # Class of committed instruction. (Count)
system.cpu.commitStats0.committedInstType::FloatMultAcc            0      0.00%     84.04% # Class of committed instruction. (Count)
system.cpu.commitStats0.committedInstType::FloatDiv            0      0.00%     84.04% # Class of committed instruction. (Count)
system.cpu.commitStats0.committedInstType::FloatMisc            0      0.00%     84.04% # Class of committed instruction. (Count)
system.cpu.commitStats0.committedInstType::FloatSqrt            0      0.00%     84.04% # Class of committed instruction. (Count)
system.cpu.commitStats0.committedInstType::SimdAdd         6584      0.01%     84.05% # Class of committed instruction. (Count)
system.cpu.commitStats0.committedInstType::SimdAddAcc            0      0.00%     84.05% # Class of committed instruction. (Count)
system.cpu.commitStats0.committedInstType::SimdAlu       112527      0.10%     84.15% # Class of committed instruction. (Count)
system.cpu.commitStats0.committedInstType::SimdCmp           36      0.00%     84.15% # Class of committed instruction. (Count)
system.cpu.commitStats0.committedInstType::SimdCvt        14218      0.01%     84.16% # Class of committed instruction. (Count)
system.cpu.commitStats0.committedInstType::SimdMisc        14431      0.01%     84.17% # Class of committed instruction. (Count)
system.cpu.commitStats0.committedInstType::SimdMult            0      0.00%     84.17% # Class of committed instruction. (Count)
system.cpu.commitStats0.committedInstType::SimdMultAcc            0      0.00%     84.17% # Class of committed instruction. (Count)
system.cpu.commitStats0.committedInstType::SimdMatMultAcc            0      0.00%     84.17% # Class of committed instruction. (Count)
system.cpu.commitStats0.committedInstType::SimdShift         1840      0.00%     84.17% # Class of committed instruction. (Count)
system.cpu.commitStats0.committedInstType::SimdShiftAcc            0      0.00%     84.17% # Class of committed instruction. (Count)
system.cpu.commitStats0.committedInstType::SimdDiv            0      0.00%     84.17% # Class of committed instruction. (Count)
system.cpu.commitStats0.committedInstType::SimdSqrt            0      0.00%     84.17% # Class of committed instruction. (Count)
system.cpu.commitStats0.committedInstType::SimdFloatAdd           75      0.00%     84.17% # Class of committed instruction. (Count)
system.cpu.commitStats0.committedInstType::SimdFloatAlu            0      0.00%     84.17% # Class of committed instruction. (Count)
system.cpu.commitStats0.committedInstType::SimdFloatCmp            0      0.00%     84.17% # Class of committed instruction. (Count)
system.cpu.commitStats0.committedInstType::SimdFloatCvt          187      0.00%     84.17% # Class of committed instruction. (Count)
system.cpu.commitStats0.committedInstType::SimdFloatDiv           75      0.00%     84.17% # Class of committed instruction. (Count)
system.cpu.commitStats0.committedInstType::SimdFloatMisc            0      0.00%     84.17% # Class of committed instruction. (Count)
system.cpu.commitStats0.committedInstType::SimdFloatMult           37      0.00%     84.17% # Class of committed instruction. (Count)
system.cpu.commitStats0.committedInstType::SimdFloatMultAcc            0      0.00%     84.17% # Class of committed instruction. (Count)
system.cpu.commitStats0.committedInstType::SimdFloatMatMultAcc            0      0.00%     84.17% # Class of committed instruction. (Count)
system.cpu.commitStats0.committedInstType::SimdFloatSqrt            0      0.00%     84.17% # Class of committed instruction. (Count)
system.cpu.commitStats0.committedInstType::SimdReduceAdd            0      0.00%     84.17% # Class of committed instruction. (Count)
system.cpu.commitStats0.committedInstType::SimdReduceAlu            0      0.00%     84.17% # Class of committed instruction. (Count)
system.cpu.commitStats0.committedInstType::SimdReduceCmp            0      0.00%     84.17% # Class of committed instruction. (Count)
system.cpu.commitStats0.committedInstType::SimdFloatReduceAdd            0      0.00%     84.17% # Class of committed instruction. (Count)
system.cpu.commitStats0.committedInstType::SimdFloatReduceCmp            0      0.00%     84.17% # Class of committed instruction. (Count)
system.cpu.commitStats0.committedInstType::SimdAes            0      0.00%     84.17% # Class of committed instruction. (Count)
system.cpu.commitStats0.committedInstType::SimdAesMix            0      0.00%     84.17% # Class of committed instruction. (Count)
system.cpu.commitStats0.committedInstType::SimdSha1Hash            0      0.00%     84.17% # Class of committed instruction. (Count)
system.cpu.commitStats0.committedInstType::SimdSha1Hash2            0      0.00%     84.17% # Class of committed instruction. (Count)
system.cpu.commitStats0.committedInstType::SimdSha256Hash            0      0.00%     84.17% # Class of committed instruction. (Count)
system.cpu.commitStats0.committedInstType::SimdSha256Hash2            0      0.00%     84.17% # Class of committed instruction. (Count)
system.cpu.commitStats0.committedInstType::SimdShaSigma2            0      0.00%     84.17% # Class of committed instruction. (Count)
system.cpu.commitStats0.committedInstType::SimdShaSigma3            0      0.00%     84.17% # Class of committed instruction. (Count)
system.cpu.commitStats0.committedInstType::SimdPredAlu            0      0.00%     84.17% # Class of committed instruction. (Count)
system.cpu.commitStats0.committedInstType::Matrix            0      0.00%     84.17% # Class of committed instruction. (Count)
system.cpu.commitStats0.committedInstType::MatrixMov            0      0.00%     84.17% # Class of committed instruction. (Count)
system.cpu.commitStats0.committedInstType::MatrixOP            0      0.00%     84.17% # Class of committed instruction. (Count)
system.cpu.commitStats0.committedInstType::MemRead     13255445     11.55%     95.72% # Class of committed instruction. (Count)
system.cpu.commitStats0.committedInstType::MemWrite      4716267      4.11%     99.83% # Class of committed instruction. (Count)
system.cpu.commitStats0.committedInstType::FloatMemRead        51004      0.04%     99.87% # Class of committed instruction. (Count)
system.cpu.commitStats0.committedInstType::FloatMemWrite       146278      0.13%    100.00% # Class of committed instruction. (Count)
system.cpu.commitStats0.committedInstType::IprAccess            0      0.00%    100.00% # Class of committed instruction. (Count)
system.cpu.commitStats0.committedInstType::InstPrefetch            0      0.00%    100.00% # Class of committed instruction. (Count)
system.cpu.commitStats0.committedInstType::SimdUnitStrideLoad            0      0.00%    100.00% # Class of committed instruction. (Count)
system.cpu.commitStats0.committedInstType::SimdUnitStrideStore            0      0.00%    100.00% # Class of committed instruction. (Count)
system.cpu.commitStats0.committedInstType::SimdUnitStrideMaskLoad            0      0.00%    100.00% # Class of committed instruction. (Count)
system.cpu.commitStats0.committedInstType::SimdUnitStrideMaskStore            0      0.00%    100.00% # Class of committed instruction. (Count)
system.cpu.commitStats0.committedInstType::SimdStridedLoad            0      0.00%    100.00% # Class of committed instruction. (Count)
system.cpu.commitStats0.committedInstType::SimdStridedStore            0      0.00%    100.00% # Class of committed instruction. (Count)
system.cpu.commitStats0.committedInstType::SimdIndexedLoad            0      0.00%    100.00% # Class of committed instruction. (Count)
system.cpu.commitStats0.committedInstType::SimdIndexedStore            0      0.00%    100.00% # Class of committed instruction. (Count)
system.cpu.commitStats0.committedInstType::SimdWholeRegisterLoad            0      0.00%    100.00% # Class of committed instruction. (Count)
system.cpu.commitStats0.committedInstType::SimdWholeRegisterStore            0      0.00%    100.00% # Class of committed instruction. (Count)
system.cpu.commitStats0.committedInstType::SimdUnitStrideFaultOnlyFirstLoad            0      0.00%    100.00% # Class of committed instruction. (Count)
system.cpu.commitStats0.committedInstType::SimdUnitStrideSegmentedLoad            0      0.00%    100.00% # Class of committed instruction. (Count)
system.cpu.commitStats0.committedInstType::SimdUnitStrideSegmentedStore            0      0.00%    100.00% # Class of committed instruction. (Count)
system.cpu.commitStats0.committedInstType::SimdExt            0      0.00%    100.00% # Class of committed instruction. (Count)
system.cpu.commitStats0.committedInstType::SimdFloatExt            0      0.00%    100.00% # Class of committed instruction. (Count)
system.cpu.commitStats0.committedInstType::SimdConfig            0      0.00%    100.00% # Class of committed instruction. (Count)
system.cpu.commitStats0.committedInstType::total    114806347                       # Class of committed instruction. (Count)
system.cpu.commitStats0.committedControl::IsControl     14365409                       # Class of control type instructions committed (Count)
system.cpu.commitStats0.committedControl::IsDirectControl     14191982                       # Class of control type instructions committed (Count)
system.cpu.commitStats0.committedControl::IsIndirectControl       173132                       # Class of control type instructions committed (Count)
system.cpu.commitStats0.committedControl::IsCondControl     12726445                       # Class of control type instructions committed (Count)
system.cpu.commitStats0.committedControl::IsUncondControl      1638669                       # Class of control type instructions committed (Count)
system.cpu.commitStats0.committedControl::IsCall       165341                       # Class of control type instructions committed (Count)
system.cpu.commitStats0.committedControl::IsReturn       165336                       # Class of control type instructions committed (Count)
system.cpu.exec_context.thread_0.numMatAluAccesses            0                       # Number of matrix alu accesses (Count)
system.cpu.exec_context.thread_0.numCallsReturns       330677                       # Number of times a function call or return occured (Count)
system.cpu.exec_context.thread_0.numMatInsts            0                       # Number of matrix instructions (Count)
system.cpu.exec_context.thread_0.numIdleCycles            0                       # Number of idle cycles (Cycle)
system.cpu.exec_context.thread_0.numBusyCycles     94958945                       # Number of busy cycles (Cycle)
system.cpu.exec_context.thread_0.notIdleFraction            1                       # Percentage of non-idle cycles (Ratio)
system.cpu.exec_context.thread_0.idleFraction            0                       # Percentage of idle cycles (Ratio)
system.cpu.executeStats0.numInsts                   0                       # Number of executed instructions (Count)
system.cpu.executeStats0.numNop                     0                       # Number of nop insts executed (Count)
system.cpu.executeStats0.numBranches                0                       # Number of branches executed (Count)
system.cpu.executeStats0.numLoadInsts               0                       # Number of load instructions executed (Count)
system.cpu.executeStats0.numStoreInsts       18168994                       # Number of stores executed (Count)
system.cpu.executeStats0.instRate                   0                       # Inst execution rate ((Count/Cycle))
system.cpu.executeStats0.numFpAluAccesses       359899                       # Number of float alu accesses (Count)
system.cpu.executeStats0.numFpRegReads         462676                       # Number of times the floating registers were read (Count)
system.cpu.executeStats0.numFpRegWrites        204640                       # Number of times the floating registers were written (Count)
system.cpu.executeStats0.numIntAluAccesses    110338668                       # Number of integer alu accesses (Count)
system.cpu.executeStats0.numIntRegReads     203230131                       # Number of times the integer registers were read (Count)
system.cpu.executeStats0.numIntRegWrites    122853892                       # Number of times the integer registers were written (Count)
system.cpu.executeStats0.numMemRefs          18168994                       # Number of memory refs (Count)
system.cpu.executeStats0.numMiscRegReads     38664216                       # Number of times the Misc registers were read (Count)
system.cpu.executeStats0.numMiscRegWrites          711                       # Number of times the Misc registers were written (Count)
system.cpu.executeStats0.numVecAluAccesses            0                       # Number of vector alu accesses (Count)
system.cpu.executeStats0.numDiscardedOps            0                       # Number of ops (including micro ops) which were discarded before commit (Count)
system.cpu.fetchStats0.numInsts              48084952                       # Number of instructions fetched (thread level) (Count)
system.cpu.fetchStats0.numOps               114806347                       # Number of ops (including micro ops) fetched (thread level) (Count)
system.cpu.fetchStats0.fetchRate             0.506376                       # Number of inst fetches per cycle ((Count/Cycle))
system.cpu.fetchStats0.numBranches           14365409                       # Number of branches fetched (Count)
system.cpu.fetchStats0.branchRate            0.151280                       # Number of branch fetches per cycle (Ratio)
system.cpu.fetchStats0.numFetchSuspends             0                       # Number of times Execute suspended instruction fetching (Count)
system.cpu.interrupts.clk_domain.clock         213328                       # Clock period in ticks (Tick)
system.cpu.l1d.demandHits::cpu.data          17025555                       # number of demand (read+write) hits (Count)
system.cpu.l1d.demandHits::total             17025555                       # number of demand (read+write) hits (Count)
system.cpu.l1d.overallHits::cpu.data         17025555                       # number of overall hits (Count)
system.cpu.l1d.overallHits::total            17025555                       # number of overall hits (Count)
system.cpu.l1d.demandMisses::cpu.data         1114483                       # number of demand (read+write) misses (Count)
system.cpu.l1d.demandMisses::total            1114483                       # number of demand (read+write) misses (Count)
system.cpu.l1d.overallMisses::cpu.data        1114483                       # number of overall misses (Count)
system.cpu.l1d.overallMisses::total           1114483                       # number of overall misses (Count)
system.cpu.l1d.demandMissLatency::cpu.data 222484917738                       # number of demand (read+write) miss ticks (Tick)
system.cpu.l1d.demandMissLatency::total  222484917738                       # number of demand (read+write) miss ticks (Tick)
system.cpu.l1d.overallMissLatency::cpu.data 222484917738                       # number of overall miss ticks (Tick)
system.cpu.l1d.overallMissLatency::total 222484917738                       # number of overall miss ticks (Tick)
system.cpu.l1d.demandAccesses::cpu.data      18140038                       # number of demand (read+write) accesses (Count)
system.cpu.l1d.demandAccesses::total         18140038                       # number of demand (read+write) accesses (Count)
system.cpu.l1d.overallAccesses::cpu.data     18140038                       # number of overall (read+write) accesses (Count)
system.cpu.l1d.overallAccesses::total        18140038                       # number of overall (read+write) accesses (Count)
system.cpu.l1d.demandMissRate::cpu.data      0.061438                       # miss rate for demand accesses (Ratio)
system.cpu.l1d.demandMissRate::total         0.061438                       # miss rate for demand accesses (Ratio)
system.cpu.l1d.overallMissRate::cpu.data     0.061438                       # miss rate for overall accesses (Ratio)
system.cpu.l1d.overallMissRate::total        0.061438                       # miss rate for overall accesses (Ratio)
system.cpu.l1d.demandAvgMissLatency::cpu.data 199630.606961                       # average overall miss latency in ticks ((Tick/Count))
system.cpu.l1d.demandAvgMissLatency::total 199630.606961                       # average overall miss latency in ticks ((Tick/Count))
system.cpu.l1d.overallAvgMissLatency::cpu.data 199630.606961                       # average overall miss latency ((Tick/Count))
system.cpu.l1d.overallAvgMissLatency::total 199630.606961                       # average overall miss latency ((Tick/Count))
system.cpu.l1d.blockedCycles::no_mshrs              0                       # number of cycles access was blocked (Cycle)
system.cpu.l1d.blockedCycles::no_targets            0                       # number of cycles access was blocked (Cycle)
system.cpu.l1d.blockedCauses::no_mshrs              0                       # number of times access was blocked (Count)
system.cpu.l1d.blockedCauses::no_targets            0                       # number of times access was blocked (Count)
system.cpu.l1d.avgBlocked::no_mshrs               nan                       # average number of cycles each access was blocked ((Cycle/Count))
system.cpu.l1d.avgBlocked::no_targets             nan                       # average number of cycles each access was blocked ((Cycle/Count))
system.cpu.l1d.writebacks::writebacks          581742                       # number of writebacks (Count)
system.cpu.l1d.writebacks::total               581742                       # number of writebacks (Count)
system.cpu.l1d.demandMshrMisses::cpu.data      1114483                       # number of demand (read+write) MSHR misses (Count)
system.cpu.l1d.demandMshrMisses::total        1114483                       # number of demand (read+write) MSHR misses (Count)
system.cpu.l1d.overallMshrMisses::cpu.data      1114483                       # number of overall MSHR misses (Count)
system.cpu.l1d.overallMshrMisses::total       1114483                       # number of overall MSHR misses (Count)
system.cpu.l1d.demandMshrMissLatency::cpu.data 207625515899                       # number of demand (read+write) MSHR miss ticks (Tick)
system.cpu.l1d.demandMshrMissLatency::total 207625515899                       # number of demand (read+write) MSHR miss ticks (Tick)
system.cpu.l1d.overallMshrMissLatency::cpu.data 207625515899                       # number of overall MSHR miss ticks (Tick)
system.cpu.l1d.overallMshrMissLatency::total 207625515899                       # number of overall MSHR miss ticks (Tick)
system.cpu.l1d.demandMshrMissRate::cpu.data     0.061438                       # mshr miss ratio for demand accesses (Ratio)
system.cpu.l1d.demandMshrMissRate::total     0.061438                       # mshr miss ratio for demand accesses (Ratio)
system.cpu.l1d.overallMshrMissRate::cpu.data     0.061438                       # mshr miss ratio for overall accesses (Ratio)
system.cpu.l1d.overallMshrMissRate::total     0.061438                       # mshr miss ratio for overall accesses (Ratio)
system.cpu.l1d.demandAvgMshrMissLatency::cpu.data 186297.606961                       # average overall mshr miss latency ((Tick/Count))
system.cpu.l1d.demandAvgMshrMissLatency::total 186297.606961                       # average overall mshr miss latency ((Tick/Count))
system.cpu.l1d.overallAvgMshrMissLatency::cpu.data 186297.606961                       # average overall mshr miss latency ((Tick/Count))
system.cpu.l1d.overallAvgMshrMissLatency::total 186297.606961                       # average overall mshr miss latency ((Tick/Count))
system.cpu.l1d.replacements                   1114503                       # number of replacements (Count)
system.cpu.l1d.LockedRMWReadReq.hits::cpu.data        15208                       # number of LockedRMWReadReq hits (Count)
system.cpu.l1d.LockedRMWReadReq.hits::total        15208                       # number of LockedRMWReadReq hits (Count)
system.cpu.l1d.LockedRMWReadReq.misses::cpu.data           84                       # number of LockedRMWReadReq misses (Count)
system.cpu.l1d.LockedRMWReadReq.misses::total           84                       # number of LockedRMWReadReq misses (Count)
system.cpu.l1d.LockedRMWReadReq.missLatency::cpu.data     17426231                       # number of LockedRMWReadReq miss ticks (Tick)
system.cpu.l1d.LockedRMWReadReq.missLatency::total     17426231                       # number of LockedRMWReadReq miss ticks (Tick)
system.cpu.l1d.LockedRMWReadReq.accesses::cpu.data        15292                       # number of LockedRMWReadReq accesses(hits+misses) (Count)
system.cpu.l1d.LockedRMWReadReq.accesses::total        15292                       # number of LockedRMWReadReq accesses(hits+misses) (Count)
system.cpu.l1d.LockedRMWReadReq.missRate::cpu.data     0.005493                       # miss rate for LockedRMWReadReq accesses (Ratio)
system.cpu.l1d.LockedRMWReadReq.missRate::total     0.005493                       # miss rate for LockedRMWReadReq accesses (Ratio)
system.cpu.l1d.LockedRMWReadReq.avgMissLatency::cpu.data 207455.130952                       # average LockedRMWReadReq miss latency ((Tick/Count))
system.cpu.l1d.LockedRMWReadReq.avgMissLatency::total 207455.130952                       # average LockedRMWReadReq miss latency ((Tick/Count))
system.cpu.l1d.LockedRMWReadReq.mshrMisses::cpu.data           84                       # number of LockedRMWReadReq MSHR misses (Count)
system.cpu.l1d.LockedRMWReadReq.mshrMisses::total           84                       # number of LockedRMWReadReq MSHR misses (Count)
system.cpu.l1d.LockedRMWReadReq.mshrMissLatency::cpu.data    236500754                       # number of LockedRMWReadReq MSHR miss ticks (Tick)
system.cpu.l1d.LockedRMWReadReq.mshrMissLatency::total    236500754                       # number of LockedRMWReadReq MSHR miss ticks (Tick)
system.cpu.l1d.LockedRMWReadReq.mshrMissRate::cpu.data     0.005493                       # mshr miss rate for LockedRMWReadReq accesses (Ratio)
system.cpu.l1d.LockedRMWReadReq.mshrMissRate::total     0.005493                       # mshr miss rate for LockedRMWReadReq accesses (Ratio)
system.cpu.l1d.LockedRMWReadReq.avgMshrMissLatency::cpu.data 2815485.166667                       # average LockedRMWReadReq mshr miss latency ((Tick/Count))
system.cpu.l1d.LockedRMWReadReq.avgMshrMissLatency::total 2815485.166667                       # average LockedRMWReadReq mshr miss latency ((Tick/Count))
system.cpu.l1d.LockedRMWWriteReq.hits::cpu.data        15292                       # number of LockedRMWWriteReq hits (Count)
system.cpu.l1d.LockedRMWWriteReq.hits::total        15292                       # number of LockedRMWWriteReq hits (Count)
system.cpu.l1d.LockedRMWWriteReq.accesses::cpu.data        15292                       # number of LockedRMWWriteReq accesses(hits+misses) (Count)
system.cpu.l1d.LockedRMWWriteReq.accesses::total        15292                       # number of LockedRMWWriteReq accesses(hits+misses) (Count)
system.cpu.l1d.ReadReq.hits::cpu.data        12642841                       # number of ReadReq hits (Count)
system.cpu.l1d.ReadReq.hits::total           12642841                       # number of ReadReq hits (Count)
system.cpu.l1d.ReadReq.misses::cpu.data        650374                       # number of ReadReq misses (Count)
system.cpu.l1d.ReadReq.misses::total           650374                       # number of ReadReq misses (Count)
system.cpu.l1d.ReadReq.missLatency::cpu.data 134033289084                       # number of ReadReq miss ticks (Tick)
system.cpu.l1d.ReadReq.missLatency::total 134033289084                       # number of ReadReq miss ticks (Tick)
system.cpu.l1d.ReadReq.accesses::cpu.data     13293215                       # number of ReadReq accesses(hits+misses) (Count)
system.cpu.l1d.ReadReq.accesses::total       13293215                       # number of ReadReq accesses(hits+misses) (Count)
system.cpu.l1d.ReadReq.missRate::cpu.data     0.048925                       # miss rate for ReadReq accesses (Ratio)
system.cpu.l1d.ReadReq.missRate::total       0.048925                       # miss rate for ReadReq accesses (Ratio)
system.cpu.l1d.ReadReq.avgMissLatency::cpu.data 206086.481139                       # average ReadReq miss latency ((Tick/Count))
system.cpu.l1d.ReadReq.avgMissLatency::total 206086.481139                       # average ReadReq miss latency ((Tick/Count))
system.cpu.l1d.ReadReq.mshrMisses::cpu.data       650374                       # number of ReadReq MSHR misses (Count)
system.cpu.l1d.ReadReq.mshrMisses::total       650374                       # number of ReadReq MSHR misses (Count)
system.cpu.l1d.ReadReq.mshrMissLatency::cpu.data 125361852542                       # number of ReadReq MSHR miss ticks (Tick)
system.cpu.l1d.ReadReq.mshrMissLatency::total 125361852542                       # number of ReadReq MSHR miss ticks (Tick)
system.cpu.l1d.ReadReq.mshrMissRate::cpu.data     0.048925                       # mshr miss rate for ReadReq accesses (Ratio)
system.cpu.l1d.ReadReq.mshrMissRate::total     0.048925                       # mshr miss rate for ReadReq accesses (Ratio)
system.cpu.l1d.ReadReq.avgMshrMissLatency::cpu.data 192753.481139                       # average ReadReq mshr miss latency ((Tick/Count))
system.cpu.l1d.ReadReq.avgMshrMissLatency::total 192753.481139                       # average ReadReq mshr miss latency ((Tick/Count))
system.cpu.l1d.WriteReq.hits::cpu.data        4382714                       # number of WriteReq hits (Count)
system.cpu.l1d.WriteReq.hits::total           4382714                       # number of WriteReq hits (Count)
system.cpu.l1d.WriteReq.misses::cpu.data       464109                       # number of WriteReq misses (Count)
system.cpu.l1d.WriteReq.misses::total          464109                       # number of WriteReq misses (Count)
system.cpu.l1d.WriteReq.missLatency::cpu.data  88451628654                       # number of WriteReq miss ticks (Tick)
system.cpu.l1d.WriteReq.missLatency::total  88451628654                       # number of WriteReq miss ticks (Tick)
system.cpu.l1d.WriteReq.accesses::cpu.data      4846823                       # number of WriteReq accesses(hits+misses) (Count)
system.cpu.l1d.WriteReq.accesses::total       4846823                       # number of WriteReq accesses(hits+misses) (Count)
system.cpu.l1d.WriteReq.missRate::cpu.data     0.095755                       # miss rate for WriteReq accesses (Ratio)
system.cpu.l1d.WriteReq.missRate::total      0.095755                       # miss rate for WriteReq accesses (Ratio)
system.cpu.l1d.WriteReq.avgMissLatency::cpu.data 190583.739281                       # average WriteReq miss latency ((Tick/Count))
system.cpu.l1d.WriteReq.avgMissLatency::total 190583.739281                       # average WriteReq miss latency ((Tick/Count))
system.cpu.l1d.WriteReq.mshrMisses::cpu.data       464109                       # number of WriteReq MSHR misses (Count)
system.cpu.l1d.WriteReq.mshrMisses::total       464109                       # number of WriteReq MSHR misses (Count)
system.cpu.l1d.WriteReq.mshrMissLatency::cpu.data  82263663357                       # number of WriteReq MSHR miss ticks (Tick)
system.cpu.l1d.WriteReq.mshrMissLatency::total  82263663357                       # number of WriteReq MSHR miss ticks (Tick)
system.cpu.l1d.WriteReq.mshrMissRate::cpu.data     0.095755                       # mshr miss rate for WriteReq accesses (Ratio)
system.cpu.l1d.WriteReq.mshrMissRate::total     0.095755                       # mshr miss rate for WriteReq accesses (Ratio)
system.cpu.l1d.WriteReq.avgMshrMissLatency::cpu.data 177250.739281                       # average WriteReq mshr miss latency ((Tick/Count))
system.cpu.l1d.WriteReq.avgMshrMissLatency::total 177250.739281                       # average WriteReq mshr miss latency ((Tick/Count))
system.cpu.l1d.power_state.pwrStateResidencyTicks::UNDEFINED 1266087613685                       # Cumulative time (in ticks) in various power states (Tick)
system.cpu.l1d.tags.tagsInUse               63.998826                       # Average ticks per tags in use ((Tick/Count))
system.cpu.l1d.tags.totalRefs                18168836                       # Total number of references to valid blocks. (Count)
system.cpu.l1d.tags.sampledRefs               1114503                       # Sample count of references to valid blocks. (Count)
system.cpu.l1d.tags.avgRefs                 16.302187                       # Average number of references to valid blocks. ((Count/Count))
system.cpu.l1d.tags.warmupTick                 479988                       # The tick when the warmup percentage was hit. (Tick)
system.cpu.l1d.tags.occupancies::cpu.data    63.998826                       # Average occupied blocks per tick, per requestor ((Count/Tick))
system.cpu.l1d.tags.avgOccs::cpu.data        0.999982                       # Average percentage of cache occupancy ((Ratio/Tick))
system.cpu.l1d.tags.avgOccs::total           0.999982                       # Average percentage of cache occupancy ((Ratio/Tick))
system.cpu.l1d.tags.occupanciesTaskId::1024           64                       # Occupied blocks per task id (Count)
system.cpu.l1d.tags.ageTaskId_1024::0               6                       # Occupied blocks per task id, per block age (Count)
system.cpu.l1d.tags.ageTaskId_1024::1              34                       # Occupied blocks per task id, per block age (Count)
system.cpu.l1d.tags.ageTaskId_1024::2              24                       # Occupied blocks per task id, per block age (Count)
system.cpu.l1d.tags.ratioOccsTaskId::1024            1                       # Ratio of occupied blocks and all blocks, per task id (Ratio)
system.cpu.l1d.tags.tagAccesses              37455811                       # Number of tag accesses (Count)
system.cpu.l1d.tags.dataAccesses             37455811                       # Number of data accesses (Count)
system.cpu.l1d.tags.power_state.pwrStateResidencyTicks::UNDEFINED 1266087613685                       # Cumulative time (in ticks) in various power states (Tick)
system.cpu.l1i.demandHits::cpu.inst          60375217                       # number of demand (read+write) hits (Count)
system.cpu.l1i.demandHits::total             60375217                       # number of demand (read+write) hits (Count)
system.cpu.l1i.overallHits::cpu.inst         60375217                       # number of overall hits (Count)
system.cpu.l1i.overallHits::total            60375217                       # number of overall hits (Count)
system.cpu.l1i.demandMisses::cpu.inst           41687                       # number of demand (read+write) misses (Count)
system.cpu.l1i.demandMisses::total              41687                       # number of demand (read+write) misses (Count)
system.cpu.l1i.overallMisses::cpu.inst          41687                       # number of overall misses (Count)
system.cpu.l1i.overallMisses::total             41687                       # number of overall misses (Count)
system.cpu.l1i.demandMissLatency::cpu.inst   8995135116                       # number of demand (read+write) miss ticks (Tick)
system.cpu.l1i.demandMissLatency::total    8995135116                       # number of demand (read+write) miss ticks (Tick)
system.cpu.l1i.overallMissLatency::cpu.inst   8995135116                       # number of overall miss ticks (Tick)
system.cpu.l1i.overallMissLatency::total   8995135116                       # number of overall miss ticks (Tick)
system.cpu.l1i.demandAccesses::cpu.inst      60416904                       # number of demand (read+write) accesses (Count)
system.cpu.l1i.demandAccesses::total         60416904                       # number of demand (read+write) accesses (Count)
system.cpu.l1i.overallAccesses::cpu.inst     60416904                       # number of overall (read+write) accesses (Count)
system.cpu.l1i.overallAccesses::total        60416904                       # number of overall (read+write) accesses (Count)
system.cpu.l1i.demandMissRate::cpu.inst      0.000690                       # miss rate for demand accesses (Ratio)
system.cpu.l1i.demandMissRate::total         0.000690                       # miss rate for demand accesses (Ratio)
system.cpu.l1i.overallMissRate::cpu.inst     0.000690                       # miss rate for overall accesses (Ratio)
system.cpu.l1i.overallMissRate::total        0.000690                       # miss rate for overall accesses (Ratio)
system.cpu.l1i.demandAvgMissLatency::cpu.inst 215777.943148                       # average overall miss latency in ticks ((Tick/Count))
system.cpu.l1i.demandAvgMissLatency::total 215777.943148                       # average overall miss latency in ticks ((Tick/Count))
system.cpu.l1i.overallAvgMissLatency::cpu.inst 215777.943148                       # average overall miss latency ((Tick/Count))
system.cpu.l1i.overallAvgMissLatency::total 215777.943148                       # average overall miss latency ((Tick/Count))
system.cpu.l1i.blockedCycles::no_mshrs              0                       # number of cycles access was blocked (Cycle)
system.cpu.l1i.blockedCycles::no_targets            0                       # number of cycles access was blocked (Cycle)
system.cpu.l1i.blockedCauses::no_mshrs              0                       # number of times access was blocked (Count)
system.cpu.l1i.blockedCauses::no_targets            0                       # number of times access was blocked (Count)
system.cpu.l1i.avgBlocked::no_mshrs               nan                       # average number of cycles each access was blocked ((Cycle/Count))
system.cpu.l1i.avgBlocked::no_targets             nan                       # average number of cycles each access was blocked ((Cycle/Count))
system.cpu.l1i.demandMshrMisses::cpu.inst        41687                       # number of demand (read+write) MSHR misses (Count)
system.cpu.l1i.demandMshrMisses::total          41687                       # number of demand (read+write) MSHR misses (Count)
system.cpu.l1i.overallMshrMisses::cpu.inst        41687                       # number of overall MSHR misses (Count)
system.cpu.l1i.overallMshrMisses::total         41687                       # number of overall MSHR misses (Count)
system.cpu.l1i.demandMshrMissLatency::cpu.inst   8439322345                       # number of demand (read+write) MSHR miss ticks (Tick)
system.cpu.l1i.demandMshrMissLatency::total   8439322345                       # number of demand (read+write) MSHR miss ticks (Tick)
system.cpu.l1i.overallMshrMissLatency::cpu.inst   8439322345                       # number of overall MSHR miss ticks (Tick)
system.cpu.l1i.overallMshrMissLatency::total   8439322345                       # number of overall MSHR miss ticks (Tick)
system.cpu.l1i.demandMshrMissRate::cpu.inst     0.000690                       # mshr miss ratio for demand accesses (Ratio)
system.cpu.l1i.demandMshrMissRate::total     0.000690                       # mshr miss ratio for demand accesses (Ratio)
system.cpu.l1i.overallMshrMissRate::cpu.inst     0.000690                       # mshr miss ratio for overall accesses (Ratio)
system.cpu.l1i.overallMshrMissRate::total     0.000690                       # mshr miss ratio for overall accesses (Ratio)
system.cpu.l1i.demandAvgMshrMissLatency::cpu.inst 202444.943148                       # average overall mshr miss latency ((Tick/Count))
system.cpu.l1i.demandAvgMshrMissLatency::total 202444.943148                       # average overall mshr miss latency ((Tick/Count))
system.cpu.l1i.overallAvgMshrMissLatency::cpu.inst 202444.943148                       # average overall mshr miss latency ((Tick/Count))
system.cpu.l1i.overallAvgMshrMissLatency::total 202444.943148                       # average overall mshr miss latency ((Tick/Count))
system.cpu.l1i.replacements                     41623                       # number of replacements (Count)
system.cpu.l1i.ReadReq.hits::cpu.inst        60375217                       # number of ReadReq hits (Count)
system.cpu.l1i.ReadReq.hits::total           60375217                       # number of ReadReq hits (Count)
system.cpu.l1i.ReadReq.misses::cpu.inst         41687                       # number of ReadReq misses (Count)
system.cpu.l1i.ReadReq.misses::total            41687                       # number of ReadReq misses (Count)
system.cpu.l1i.ReadReq.missLatency::cpu.inst   8995135116                       # number of ReadReq miss ticks (Tick)
system.cpu.l1i.ReadReq.missLatency::total   8995135116                       # number of ReadReq miss ticks (Tick)
system.cpu.l1i.ReadReq.accesses::cpu.inst     60416904                       # number of ReadReq accesses(hits+misses) (Count)
system.cpu.l1i.ReadReq.accesses::total       60416904                       # number of ReadReq accesses(hits+misses) (Count)
system.cpu.l1i.ReadReq.missRate::cpu.inst     0.000690                       # miss rate for ReadReq accesses (Ratio)
system.cpu.l1i.ReadReq.missRate::total       0.000690                       # miss rate for ReadReq accesses (Ratio)
system.cpu.l1i.ReadReq.avgMissLatency::cpu.inst 215777.943148                       # average ReadReq miss latency ((Tick/Count))
system.cpu.l1i.ReadReq.avgMissLatency::total 215777.943148                       # average ReadReq miss latency ((Tick/Count))
system.cpu.l1i.ReadReq.mshrMisses::cpu.inst        41687                       # number of ReadReq MSHR misses (Count)
system.cpu.l1i.ReadReq.mshrMisses::total        41687                       # number of ReadReq MSHR misses (Count)
system.cpu.l1i.ReadReq.mshrMissLatency::cpu.inst   8439322345                       # number of ReadReq MSHR miss ticks (Tick)
system.cpu.l1i.ReadReq.mshrMissLatency::total   8439322345                       # number of ReadReq MSHR miss ticks (Tick)
system.cpu.l1i.ReadReq.mshrMissRate::cpu.inst     0.000690                       # mshr miss rate for ReadReq accesses (Ratio)
system.cpu.l1i.ReadReq.mshrMissRate::total     0.000690                       # mshr miss rate for ReadReq accesses (Ratio)
system.cpu.l1i.ReadReq.avgMshrMissLatency::cpu.inst 202444.943148                       # average ReadReq mshr miss latency ((Tick/Count))
system.cpu.l1i.ReadReq.avgMshrMissLatency::total 202444.943148                       # average ReadReq mshr miss latency ((Tick/Count))
system.cpu.l1i.power_state.pwrStateResidencyTicks::UNDEFINED 1266087613685                       # Cumulative time (in ticks) in various power states (Tick)
system.cpu.l1i.tags.tagsInUse               63.996554                       # Average ticks per tags in use ((Tick/Count))
system.cpu.l1i.tags.totalRefs                60244546                       # Total number of references to valid blocks. (Count)
system.cpu.l1i.tags.sampledRefs                 41623                       # Sample count of references to valid blocks. (Count)
system.cpu.l1i.tags.avgRefs               1447.385964                       # Average number of references to valid blocks. ((Count/Count))
system.cpu.l1i.tags.warmupTick                 199995                       # The tick when the warmup percentage was hit. (Tick)
system.cpu.l1i.tags.occupancies::cpu.inst    63.996554                       # Average occupied blocks per tick, per requestor ((Count/Tick))
system.cpu.l1i.tags.avgOccs::cpu.inst        0.999946                       # Average percentage of cache occupancy ((Ratio/Tick))
system.cpu.l1i.tags.avgOccs::total           0.999946                       # Average percentage of cache occupancy ((Ratio/Tick))
system.cpu.l1i.tags.occupanciesTaskId::1024           64                       # Occupied blocks per task id (Count)
system.cpu.l1i.tags.ageTaskId_1024::0               8                       # Occupied blocks per task id, per block age (Count)
system.cpu.l1i.tags.ageTaskId_1024::1              26                       # Occupied blocks per task id, per block age (Count)
system.cpu.l1i.tags.ageTaskId_1024::2              26                       # Occupied blocks per task id, per block age (Count)
system.cpu.l1i.tags.ageTaskId_1024::4               4                       # Occupied blocks per task id, per block age (Count)
system.cpu.l1i.tags.ratioOccsTaskId::1024            1                       # Ratio of occupied blocks and all blocks, per task id (Ratio)
system.cpu.l1i.tags.tagAccesses             120875495                       # Number of tag accesses (Count)
system.cpu.l1i.tags.dataAccesses            120875495                       # Number of data accesses (Count)
system.cpu.l1i.tags.power_state.pwrStateResidencyTicks::UNDEFINED 1266087613685                       # Cumulative time (in ticks) in various power states (Tick)
system.cpu.mmu.dtb.rdAccesses                13308773                       # TLB accesses on read requests (Count)
system.cpu.mmu.dtb.wrAccesses                 4862561                       # TLB accesses on write requests (Count)
system.cpu.mmu.dtb.rdMisses                      2314                       # TLB misses on read requests (Count)
system.cpu.mmu.dtb.wrMisses                      1422                       # TLB misses on write requests (Count)
system.cpu.mmu.dtb.walker.power_state.pwrStateResidencyTicks::UNDEFINED 1266087613685                       # Cumulative time (in ticks) in various power states (Tick)
system.cpu.mmu.itb.rdAccesses                       0                       # TLB accesses on read requests (Count)
system.cpu.mmu.itb.wrAccesses                60417019                       # TLB accesses on write requests (Count)
system.cpu.mmu.itb.rdMisses                         0                       # TLB misses on read requests (Count)
system.cpu.mmu.itb.wrMisses                       511                       # TLB misses on write requests (Count)
system.cpu.mmu.itb.walker.power_state.pwrStateResidencyTicks::UNDEFINED 1266087613685                       # Cumulative time (in ticks) in various power states (Tick)
system.cpu.power_state.pwrStateResidencyTicks::ON 1266087613685                       # Cumulative time (in ticks) in various power states (Tick)
system.cpu.thread_0.numInsts                        0                       # Number of Instructions committed (Count)
system.cpu.thread_0.numOps                          0                       # Number of Ops committed (Count)
system.cpu.thread_0.numMemRefs                      0                       # Number of Memory References (Count)
system.cpu.workload.numSyscalls                   519                       # Number of system calls (Count)
system.mem_ctrl.avgPriority_writebacks::samples    270582.00                       # Average QoS priority value for accepted requests (Count)
system.mem_ctrl.avgPriority_cpu.inst::samples     41687.00                       # Average QoS priority value for accepted requests (Count)
system.mem_ctrl.avgPriority_cpu.data::samples    656232.00                       # Average QoS priority value for accepted requests (Count)
system.mem_ctrl.priorityMinLatency       0.000000018750                       # per QoS priority minimum request to response latency (Second)
system.mem_ctrl.priorityMaxLatency       0.015732072106                       # per QoS priority maximum request to response latency (Second)
system.mem_ctrl.numReadWriteTurnArounds         15113                       # Number of turnarounds from READ to WRITE (Count)
system.mem_ctrl.numWriteReadTurnArounds         15113                       # Number of turnarounds from WRITE to READ (Count)
system.mem_ctrl.numStayReadState              2300869                       # Number of times bus staying in READ state (Count)
system.mem_ctrl.numStayWriteState              255963                       # Number of times bus staying in WRITE state (Count)
system.mem_ctrl.readReqs                      1156254                       # Number of read requests accepted (Count)
system.mem_ctrl.writeReqs                      581742                       # Number of write requests accepted (Count)
system.mem_ctrl.readBursts                    1156254                       # Number of controller read bursts, including those serviced by the write queue (Count)
system.mem_ctrl.writeBursts                    581742                       # Number of controller write bursts, including those merged in the write queue (Count)
system.mem_ctrl.servicedByWrQ                  458335                       # Number of controller read bursts serviced by the write queue (Count)
system.mem_ctrl.mergedWrBursts                 311160                       # Number of controller write bursts merged with an existing one (Count)
system.mem_ctrl.neitherReadNorWriteReqs             0                       # Number of requests that are neither read nor write (Count)
system.mem_ctrl.avgRdQLen                        1.00                       # Average read queue length when enqueuing ((Count/Tick))
system.mem_ctrl.avgWrQLen                       25.15                       # Average write queue length when enqueuing ((Count/Tick))
system.mem_ctrl.numRdRetry                          0                       # Number of times read queue was full causing retry (Count)
system.mem_ctrl.numWrRetry                          0                       # Number of times write queue was full causing retry (Count)
system.mem_ctrl.readPktSize::0                      0                       # Read request sizes (log2) (Count)
system.mem_ctrl.readPktSize::1                      0                       # Read request sizes (log2) (Count)
system.mem_ctrl.readPktSize::2                      0                       # Read request sizes (log2) (Count)
system.mem_ctrl.readPktSize::3                      0                       # Read request sizes (log2) (Count)
system.mem_ctrl.readPktSize::4                      0                       # Read request sizes (log2) (Count)
system.mem_ctrl.readPktSize::5                      0                       # Read request sizes (log2) (Count)
system.mem_ctrl.readPktSize::6                1156254                       # Read request sizes (log2) (Count)
system.mem_ctrl.writePktSize::0                     0                       # Write request sizes (log2) (Count)
system.mem_ctrl.writePktSize::1                     0                       # Write request sizes (log2) (Count)
system.mem_ctrl.writePktSize::2                     0                       # Write request sizes (log2) (Count)
system.mem_ctrl.writePktSize::3                     0                       # Write request sizes (log2) (Count)
system.mem_ctrl.writePktSize::4                     0                       # Write request sizes (log2) (Count)
system.mem_ctrl.writePktSize::5                     0                       # Write request sizes (log2) (Count)
system.mem_ctrl.writePktSize::6                581742                       # Write request sizes (log2) (Count)
system.mem_ctrl.rdQLenPdf::0                   697880                       # What read queue length does an incoming req see (Count)
system.mem_ctrl.rdQLenPdf::1                       39                       # What read queue length does an incoming req see (Count)
system.mem_ctrl.rdQLenPdf::2                        0                       # What read queue length does an incoming req see (Count)
system.mem_ctrl.rdQLenPdf::3                        0                       # What read queue length does an incoming req see (Count)
system.mem_ctrl.rdQLenPdf::4                        0                       # What read queue length does an incoming req see (Count)
system.mem_ctrl.rdQLenPdf::5                        0                       # What read queue length does an incoming req see (Count)
system.mem_ctrl.rdQLenPdf::6                        0                       # What read queue length does an incoming req see (Count)
system.mem_ctrl.rdQLenPdf::7                        0                       # What read queue length does an incoming req see (Count)
system.mem_ctrl.rdQLenPdf::8                        0                       # What read queue length does an incoming req see (Count)
system.mem_ctrl.rdQLenPdf::9                        0                       # What read queue length does an incoming req see (Count)
system.mem_ctrl.rdQLenPdf::10                       0                       # What read queue length does an incoming req see (Count)
system.mem_ctrl.rdQLenPdf::11                       0                       # What read queue length does an incoming req see (Count)
system.mem_ctrl.rdQLenPdf::12                       0                       # What read queue length does an incoming req see (Count)
system.mem_ctrl.rdQLenPdf::13                       0                       # What read queue length does an incoming req see (Count)
system.mem_ctrl.rdQLenPdf::14                       0                       # What read queue length does an incoming req see (Count)
system.mem_ctrl.rdQLenPdf::15                       0                       # What read queue length does an incoming req see (Count)
system.mem_ctrl.rdQLenPdf::16                       0                       # What read queue length does an incoming req see (Count)
system.mem_ctrl.rdQLenPdf::17                       0                       # What read queue length does an incoming req see (Count)
system.mem_ctrl.rdQLenPdf::18                       0                       # What read queue length does an incoming req see (Count)
system.mem_ctrl.rdQLenPdf::19                       0                       # What read queue length does an incoming req see (Count)
system.mem_ctrl.rdQLenPdf::20                       0                       # What read queue length does an incoming req see (Count)
system.mem_ctrl.rdQLenPdf::21                       0                       # What read queue length does an incoming req see (Count)
system.mem_ctrl.rdQLenPdf::22                       0                       # What read queue length does an incoming req see (Count)
system.mem_ctrl.rdQLenPdf::23                       0                       # What read queue length does an incoming req see (Count)
system.mem_ctrl.rdQLenPdf::24                       0                       # What read queue length does an incoming req see (Count)
system.mem_ctrl.rdQLenPdf::25                       0                       # What read queue length does an incoming req see (Count)
system.mem_ctrl.rdQLenPdf::26                       0                       # What read queue length does an incoming req see (Count)
system.mem_ctrl.rdQLenPdf::27                       0                       # What read queue length does an incoming req see (Count)
system.mem_ctrl.rdQLenPdf::28                       0                       # What read queue length does an incoming req see (Count)
system.mem_ctrl.rdQLenPdf::29                       0                       # What read queue length does an incoming req see (Count)
system.mem_ctrl.rdQLenPdf::30                       0                       # What read queue length does an incoming req see (Count)
system.mem_ctrl.rdQLenPdf::31                       0                       # What read queue length does an incoming req see (Count)
system.mem_ctrl.wrQLenPdf::0                        1                       # What write queue length does an incoming req see (Count)
system.mem_ctrl.wrQLenPdf::1                        1                       # What write queue length does an incoming req see (Count)
system.mem_ctrl.wrQLenPdf::2                        1                       # What write queue length does an incoming req see (Count)
system.mem_ctrl.wrQLenPdf::3                        1                       # What write queue length does an incoming req see (Count)
system.mem_ctrl.wrQLenPdf::4                        1                       # What write queue length does an incoming req see (Count)
system.mem_ctrl.wrQLenPdf::5                        1                       # What write queue length does an incoming req see (Count)
system.mem_ctrl.wrQLenPdf::6                        1                       # What write queue length does an incoming req see (Count)
system.mem_ctrl.wrQLenPdf::7                        1                       # What write queue length does an incoming req see (Count)
system.mem_ctrl.wrQLenPdf::8                        1                       # What write queue length does an incoming req see (Count)
system.mem_ctrl.wrQLenPdf::9                        1                       # What write queue length does an incoming req see (Count)
system.mem_ctrl.wrQLenPdf::10                       1                       # What write queue length does an incoming req see (Count)
system.mem_ctrl.wrQLenPdf::11                       1                       # What write queue length does an incoming req see (Count)
system.mem_ctrl.wrQLenPdf::12                       1                       # What write queue length does an incoming req see (Count)
system.mem_ctrl.wrQLenPdf::13                       1                       # What write queue length does an incoming req see (Count)
system.mem_ctrl.wrQLenPdf::14                       1                       # What write queue length does an incoming req see (Count)
system.mem_ctrl.wrQLenPdf::15                   14278                       # What write queue length does an incoming req see (Count)
system.mem_ctrl.wrQLenPdf::16                   14454                       # What write queue length does an incoming req see (Count)
system.mem_ctrl.wrQLenPdf::17                   15115                       # What write queue length does an incoming req see (Count)
system.mem_ctrl.wrQLenPdf::18                   15115                       # What write queue length does an incoming req see (Count)
system.mem_ctrl.wrQLenPdf::19                   15123                       # What write queue length does an incoming req see (Count)
system.mem_ctrl.wrQLenPdf::20                   15114                       # What write queue length does an incoming req see (Count)
system.mem_ctrl.wrQLenPdf::21                   15116                       # What write queue length does an incoming req see (Count)
system.mem_ctrl.wrQLenPdf::22                   15114                       # What write queue length does an incoming req see (Count)
system.mem_ctrl.wrQLenPdf::23                   15115                       # What write queue length does an incoming req see (Count)
system.mem_ctrl.wrQLenPdf::24                   15115                       # What write queue length does an incoming req see (Count)
system.mem_ctrl.wrQLenPdf::25                   15114                       # What write queue length does an incoming req see (Count)
system.mem_ctrl.wrQLenPdf::26                   15114                       # What write queue length does an incoming req see (Count)
system.mem_ctrl.wrQLenPdf::27                   15114                       # What write queue length does an incoming req see (Count)
system.mem_ctrl.wrQLenPdf::28                   15114                       # What write queue length does an incoming req see (Count)
system.mem_ctrl.wrQLenPdf::29                   15113                       # What write queue length does an incoming req see (Count)
system.mem_ctrl.wrQLenPdf::30                   15113                       # What write queue length does an incoming req see (Count)
system.mem_ctrl.wrQLenPdf::31                   15113                       # What write queue length does an incoming req see (Count)
system.mem_ctrl.wrQLenPdf::32                   15113                       # What write queue length does an incoming req see (Count)
system.mem_ctrl.wrQLenPdf::33                       0                       # What write queue length does an incoming req see (Count)
system.mem_ctrl.wrQLenPdf::34                       0                       # What write queue length does an incoming req see (Count)
system.mem_ctrl.wrQLenPdf::35                       0                       # What write queue length does an incoming req see (Count)
system.mem_ctrl.wrQLenPdf::36                       0                       # What write queue length does an incoming req see (Count)
system.mem_ctrl.wrQLenPdf::37                       0                       # What write queue length does an incoming req see (Count)
system.mem_ctrl.wrQLenPdf::38                       0                       # What write queue length does an incoming req see (Count)
system.mem_ctrl.wrQLenPdf::39                       0                       # What write queue length does an incoming req see (Count)
system.mem_ctrl.wrQLenPdf::40                       0                       # What write queue length does an incoming req see (Count)
system.mem_ctrl.wrQLenPdf::41                       0                       # What write queue length does an incoming req see (Count)
system.mem_ctrl.wrQLenPdf::42                       0                       # What write queue length does an incoming req see (Count)
system.mem_ctrl.wrQLenPdf::43                       0                       # What write queue length does an incoming req see (Count)
system.mem_ctrl.wrQLenPdf::44                       0                       # What write queue length does an incoming req see (Count)
system.mem_ctrl.wrQLenPdf::45                       0                       # What write queue length does an incoming req see (Count)
system.mem_ctrl.wrQLenPdf::46                       0                       # What write queue length does an incoming req see (Count)
system.mem_ctrl.wrQLenPdf::47                       0                       # What write queue length does an incoming req see (Count)
system.mem_ctrl.wrQLenPdf::48                       0                       # What write queue length does an incoming req see (Count)
system.mem_ctrl.wrQLenPdf::49                       0                       # What write queue length does an incoming req see (Count)
system.mem_ctrl.wrQLenPdf::50                       0                       # What write queue length does an incoming req see (Count)
system.mem_ctrl.wrQLenPdf::51                       0                       # What write queue length does an incoming req see (Count)
system.mem_ctrl.wrQLenPdf::52                       0                       # What write queue length does an incoming req see (Count)
system.mem_ctrl.wrQLenPdf::53                       0                       # What write queue length does an incoming req see (Count)
system.mem_ctrl.wrQLenPdf::54                       0                       # What write queue length does an incoming req see (Count)
system.mem_ctrl.wrQLenPdf::55                       0                       # What write queue length does an incoming req see (Count)
system.mem_ctrl.wrQLenPdf::56                       0                       # What write queue length does an incoming req see (Count)
system.mem_ctrl.wrQLenPdf::57                       0                       # What write queue length does an incoming req see (Count)
system.mem_ctrl.wrQLenPdf::58                       0                       # What write queue length does an incoming req see (Count)
system.mem_ctrl.wrQLenPdf::59                       0                       # What write queue length does an incoming req see (Count)
system.mem_ctrl.wrQLenPdf::60                       0                       # What write queue length does an incoming req see (Count)
system.mem_ctrl.wrQLenPdf::61                       0                       # What write queue length does an incoming req see (Count)
system.mem_ctrl.wrQLenPdf::62                       0                       # What write queue length does an incoming req see (Count)
system.mem_ctrl.wrQLenPdf::63                       0                       # What write queue length does an incoming req see (Count)
system.mem_ctrl.rdPerTurnAround::samples        15113                       # Reads before turning the bus around for writes (Count)
system.mem_ctrl.rdPerTurnAround::mean       46.177265                       # Reads before turning the bus around for writes (Count)
system.mem_ctrl.rdPerTurnAround::gmean      33.329307                       # Reads before turning the bus around for writes (Count)
system.mem_ctrl.rdPerTurnAround::stdev      71.605805                       # Reads before turning the bus around for writes (Count)
system.mem_ctrl.rdPerTurnAround::0-127          14366     95.06%     95.06% # Reads before turning the bus around for writes (Count)
system.mem_ctrl.rdPerTurnAround::128-255          631      4.18%     99.23% # Reads before turning the bus around for writes (Count)
system.mem_ctrl.rdPerTurnAround::256-383           34      0.22%     99.46% # Reads before turning the bus around for writes (Count)
system.mem_ctrl.rdPerTurnAround::384-511           22      0.15%     99.60% # Reads before turning the bus around for writes (Count)
system.mem_ctrl.rdPerTurnAround::512-639           13      0.09%     99.69% # Reads before turning the bus around for writes (Count)
system.mem_ctrl.rdPerTurnAround::640-767            6      0.04%     99.73% # Reads before turning the bus around for writes (Count)
system.mem_ctrl.rdPerTurnAround::768-895            1      0.01%     99.74% # Reads before turning the bus around for writes (Count)
system.mem_ctrl.rdPerTurnAround::896-1023           37      0.24%     99.98% # Reads before turning the bus around for writes (Count)
system.mem_ctrl.rdPerTurnAround::1024-1151            1      0.01%     99.99% # Reads before turning the bus around for writes (Count)
system.mem_ctrl.rdPerTurnAround::1664-1791            1      0.01%     99.99% # Reads before turning the bus around for writes (Count)
system.mem_ctrl.rdPerTurnAround::2688-2815            1      0.01%    100.00% # Reads before turning the bus around for writes (Count)
system.mem_ctrl.rdPerTurnAround::total          15113                       # Reads before turning the bus around for writes (Count)
system.mem_ctrl.wrPerTurnAround::samples        15113                       # Writes before turning the bus around for reads (Count)
system.mem_ctrl.wrPerTurnAround::mean       17.902005                       # Writes before turning the bus around for reads (Count)
system.mem_ctrl.wrPerTurnAround::gmean      17.896656                       # Writes before turning the bus around for reads (Count)
system.mem_ctrl.wrPerTurnAround::stdev       0.423148                       # Writes before turning the bus around for reads (Count)
system.mem_ctrl.wrPerTurnAround::16               665      4.40%      4.40% # Writes before turning the bus around for reads (Count)
system.mem_ctrl.wrPerTurnAround::17               171      1.13%      5.53% # Writes before turning the bus around for reads (Count)
system.mem_ctrl.wrPerTurnAround::18             14257     94.34%     99.87% # Writes before turning the bus around for reads (Count)
system.mem_ctrl.wrPerTurnAround::19                20      0.13%    100.00% # Writes before turning the bus around for reads (Count)
system.mem_ctrl.wrPerTurnAround::total          15113                       # Writes before turning the bus around for reads (Count)
system.mem_ctrl.bytesReadWrQ                 29333440                       # Total number of bytes read from write queue (Byte)
system.mem_ctrl.bytesReadSys                 74000256                       # Total read bytes from the system interface side (Byte)
system.mem_ctrl.bytesWrittenSys              37231488                       # Total written bytes from the system interface side (Byte)
system.mem_ctrl.avgRdBWSys               58447974.05814533                       # Average system read bandwidth in Byte/s ((Byte/Second))
system.mem_ctrl.avgWrBWSys               29406723.19795960                       # Average system write bandwidth in Byte/s ((Byte/Second))
system.mem_ctrl.totGap                   1266087333692                       # Total gap between requests (Tick)
system.mem_ctrl.avgGap                      728475.40                       # Average gap between requests ((Tick/Count))
system.mem_ctrl.requestorReadBytes::cpu.inst      2667968                       # Per-requestor bytes read from memory (Byte)
system.mem_ctrl.requestorReadBytes::cpu.data     41998848                       # Per-requestor bytes read from memory (Byte)
system.mem_ctrl.requestorWriteBytes::writebacks     17315392                       # Per-requestor bytes write to memory (Byte)
system.mem_ctrl.requestorReadRate::cpu.inst 2107253.851283458993                       # Per-requestor bytes read from memory rate ((Byte/Second))
system.mem_ctrl.requestorReadRate::cpu.data 33172149.814941029996                       # Per-requestor bytes read from memory rate ((Byte/Second))
system.mem_ctrl.requestorWriteRate::writebacks 13676298.395813889802                       # Per-requestor bytes write to memory rate ((Byte/Second))
system.mem_ctrl.requestorReadAccesses::cpu.inst        41687                       # Per-requestor read serviced memory accesses (Count)
system.mem_ctrl.requestorReadAccesses::cpu.data      1114567                       # Per-requestor read serviced memory accesses (Count)
system.mem_ctrl.requestorWriteAccesses::writebacks       581742                       # Per-requestor write serviced memory accesses (Count)
system.mem_ctrl.requestorReadTotalLat::cpu.inst   1386172250                       # Per-requestor read total memory access latency (Tick)
system.mem_ctrl.requestorReadTotalLat::cpu.data  23506790444                       # Per-requestor read total memory access latency (Tick)
system.mem_ctrl.requestorWriteTotalLat::writebacks 30673799243076                       # Per-requestor write total memory access latency (Tick)
system.mem_ctrl.requestorReadAvgLat::cpu.inst     33251.91                       # Per-requestor read average memory access latency ((Tick/Count))
system.mem_ctrl.requestorReadAvgLat::cpu.data     21090.51                       # Per-requestor read average memory access latency ((Tick/Count))
system.mem_ctrl.requestorWriteAvgLat::writebacks  52727496.46                       # Per-requestor write average memory access latency ((Tick/Count))
system.mem_ctrl.dram.bytesRead::cpu.inst      2667968                       # Number of bytes read from this memory (Byte)
system.mem_ctrl.dram.bytesRead::cpu.data     71332288                       # Number of bytes read from this memory (Byte)
system.mem_ctrl.dram.bytesRead::total        74000256                       # Number of bytes read from this memory (Byte)
system.mem_ctrl.dram.bytesInstRead::cpu.inst      2667968                       # Number of instructions bytes read from this memory (Byte)
system.mem_ctrl.dram.bytesInstRead::total      2667968                       # Number of instructions bytes read from this memory (Byte)
system.mem_ctrl.dram.bytesWritten::writebacks     37231488                       # Number of bytes written to this memory (Byte)
system.mem_ctrl.dram.bytesWritten::total     37231488                       # Number of bytes written to this memory (Byte)
system.mem_ctrl.dram.numReads::cpu.inst         41687                       # Number of read requests responded to by this memory (Count)
system.mem_ctrl.dram.numReads::cpu.data       1114567                       # Number of read requests responded to by this memory (Count)
system.mem_ctrl.dram.numReads::total          1156254                       # Number of read requests responded to by this memory (Count)
system.mem_ctrl.dram.numWrites::writebacks       581742                       # Number of write requests responded to by this memory (Count)
system.mem_ctrl.dram.numWrites::total          581742                       # Number of write requests responded to by this memory (Count)
system.mem_ctrl.dram.bwRead::cpu.inst         2107254                       # Total read bandwidth from this memory ((Byte/Second))
system.mem_ctrl.dram.bwRead::cpu.data        56340720                       # Total read bandwidth from this memory ((Byte/Second))
system.mem_ctrl.dram.bwRead::total           58447974                       # Total read bandwidth from this memory ((Byte/Second))
system.mem_ctrl.dram.bwInstRead::cpu.inst      2107254                       # Instruction read bandwidth from this memory ((Byte/Second))
system.mem_ctrl.dram.bwInstRead::total        2107254                       # Instruction read bandwidth from this memory ((Byte/Second))
system.mem_ctrl.dram.bwWrite::writebacks     29406723                       # Write bandwidth from this memory ((Byte/Second))
system.mem_ctrl.dram.bwWrite::total          29406723                       # Write bandwidth from this memory ((Byte/Second))
system.mem_ctrl.dram.bwTotal::writebacks     29406723                       # Total bandwidth to/from this memory ((Byte/Second))
system.mem_ctrl.dram.bwTotal::cpu.inst        2107254                       # Total bandwidth to/from this memory ((Byte/Second))
system.mem_ctrl.dram.bwTotal::cpu.data       56340720                       # Total bandwidth to/from this memory ((Byte/Second))
system.mem_ctrl.dram.bwTotal::total          87854697                       # Total bandwidth to/from this memory ((Byte/Second))
system.mem_ctrl.dram.readBursts                697919                       # Number of DRAM read bursts (Count)
system.mem_ctrl.dram.writeBursts               270553                       # Number of DRAM write bursts (Count)
system.mem_ctrl.dram.perBankRdBursts::0         12938                       # Per bank write bursts (Count)
system.mem_ctrl.dram.perBankRdBursts::1         10603                       # Per bank write bursts (Count)
system.mem_ctrl.dram.perBankRdBursts::2         20614                       # Per bank write bursts (Count)
system.mem_ctrl.dram.perBankRdBursts::3         20774                       # Per bank write bursts (Count)
system.mem_ctrl.dram.perBankRdBursts::4         74730                       # Per bank write bursts (Count)
system.mem_ctrl.dram.perBankRdBursts::5         25069                       # Per bank write bursts (Count)
system.mem_ctrl.dram.perBankRdBursts::6         15511                       # Per bank write bursts (Count)
system.mem_ctrl.dram.perBankRdBursts::7         22333                       # Per bank write bursts (Count)
system.mem_ctrl.dram.perBankRdBursts::8         31289                       # Per bank write bursts (Count)
system.mem_ctrl.dram.perBankRdBursts::9        347434                       # Per bank write bursts (Count)
system.mem_ctrl.dram.perBankRdBursts::10        18631                       # Per bank write bursts (Count)
system.mem_ctrl.dram.perBankRdBursts::11        23255                       # Per bank write bursts (Count)
system.mem_ctrl.dram.perBankRdBursts::12        28999                       # Per bank write bursts (Count)
system.mem_ctrl.dram.perBankRdBursts::13        19224                       # Per bank write bursts (Count)
system.mem_ctrl.dram.perBankRdBursts::14        17486                       # Per bank write bursts (Count)
system.mem_ctrl.dram.perBankRdBursts::15         9029                       # Per bank write bursts (Count)
system.mem_ctrl.dram.perBankWrBursts::0          4964                       # Per bank write bursts (Count)
system.mem_ctrl.dram.perBankWrBursts::1           567                       # Per bank write bursts (Count)
system.mem_ctrl.dram.perBankWrBursts::2         16759                       # Per bank write bursts (Count)
system.mem_ctrl.dram.perBankWrBursts::3         11030                       # Per bank write bursts (Count)
system.mem_ctrl.dram.perBankWrBursts::4         31005                       # Per bank write bursts (Count)
system.mem_ctrl.dram.perBankWrBursts::5          9387                       # Per bank write bursts (Count)
system.mem_ctrl.dram.perBankWrBursts::6          8681                       # Per bank write bursts (Count)
system.mem_ctrl.dram.perBankWrBursts::7          8401                       # Per bank write bursts (Count)
system.mem_ctrl.dram.perBankWrBursts::8          7828                       # Per bank write bursts (Count)
system.mem_ctrl.dram.perBankWrBursts::9        154397                       # Per bank write bursts (Count)
system.mem_ctrl.dram.perBankWrBursts::10         2986                       # Per bank write bursts (Count)
system.mem_ctrl.dram.perBankWrBursts::11         5664                       # Per bank write bursts (Count)
system.mem_ctrl.dram.perBankWrBursts::12         6087                       # Per bank write bursts (Count)
system.mem_ctrl.dram.perBankWrBursts::13          991                       # Per bank write bursts (Count)
system.mem_ctrl.dram.perBankWrBursts::14          822                       # Per bank write bursts (Count)
system.mem_ctrl.dram.perBankWrBursts::15          984                       # Per bank write bursts (Count)
system.mem_ctrl.dram.totQLat              11806981444                       # Total ticks spent queuing (Tick)
system.mem_ctrl.dram.totBusLat             3489595000                       # Total ticks spent in databus transfers (Tick)
system.mem_ctrl.dram.totMemAccLat         24892962694                       # Total ticks spent from burst creation until serviced by the DRAM (Tick)
system.mem_ctrl.dram.avgQLat                 16917.41                       # Average queueing delay per DRAM burst ((Tick/Count))
system.mem_ctrl.dram.avgBusLat                5000.00                       # Average bus latency per DRAM burst ((Tick/Count))
system.mem_ctrl.dram.avgMemAccLat            35667.41                       # Average memory access latency per DRAM burst ((Tick/Count))
system.mem_ctrl.dram.readRowHits               247963                       # Number of row buffer hits during reads (Count)
system.mem_ctrl.dram.writeRowHits              233097                       # Number of row buffer hits during writes (Count)
system.mem_ctrl.dram.readRowHitRate             35.53                       # Row buffer hit rate for reads (Ratio)
system.mem_ctrl.dram.writeRowHitRate            86.16                       # Row buffer hit rate for writes (Ratio)
system.mem_ctrl.dram.bytesPerActivate::samples       487409                       # Bytes accessed per row activation (Byte)
system.mem_ctrl.dram.bytesPerActivate::mean   127.166335                       # Bytes accessed per row activation (Byte)
system.mem_ctrl.dram.bytesPerActivate::gmean    95.761848                       # Bytes accessed per row activation (Byte)
system.mem_ctrl.dram.bytesPerActivate::stdev   141.713249                       # Bytes accessed per row activation (Byte)
system.mem_ctrl.dram.bytesPerActivate::0-127       314472     64.52%     64.52% # Bytes accessed per row activation (Byte)
[...]
system.mem_ctrl.dram.bwRead::cpu.data        23770054                       # Total read bandwidth from this memory ((Byte/Second))
system.mem_ctrl.dram.bwRead::total           95879798                       # Total read bandwidth from this memory ((Byte/Second))
system.mem_ctrl.dram.bwInstRead::cpu.inst     72109744                       # Instruction read bandwidth from this memory ((Byte/Second))
system.mem_ctrl.dram.bwInstRead::total       72109744                       # Instruction read bandwidth from this memory ((Byte/Second))
system.mem_ctrl.dram.bwWrite::writebacks      8546558                       # Write bandwidth from this memory ((Byte/Second))
system.mem_ctrl.dram.bwWrite::total           8546558                       # Write bandwidth from this memory ((Byte/Second))
system.mem_ctrl.dram.bwTotal::writebacks      8546558                       # Total bandwidth to/from this memory ((Byte/Second))
system.mem_ctrl.dram.bwTotal::cpu.inst       72109744                       # Total bandwidth to/from this memory ((Byte/Second))
system.mem_ctrl.dram.bwTotal::cpu.data       23770054                       # Total bandwidth to/from this memory ((Byte/Second))
system.mem_ctrl.dram.bwTotal::total         104426356                       # Total bandwidth to/from this memory ((Byte/Second))
system.mem_ctrl.dram.readBursts                231131                       # Number of DRAM read bursts (Count)
system.mem_ctrl.dram.writeBursts                12337                       # Number of DRAM write bursts (Count)
system.mem_ctrl.dram.perBankRdBursts::0         18100                       # Per bank write bursts (Count)
system.mem_ctrl.dram.perBankRdBursts::1          2640                       # Per bank write bursts (Count)
system.mem_ctrl.dram.perBankRdBursts::2          2689                       # Per bank write bursts (Count)
system.mem_ctrl.dram.perBankRdBursts::3          6687                       # Per bank write bursts (Count)
system.mem_ctrl.dram.perBankRdBursts::4          9258                       # Per bank write bursts (Count)
system.mem_ctrl.dram.perBankRdBursts::5          7893                       # Per bank write bursts (Count)
system.mem_ctrl.dram.perBankRdBursts::6         42882                       # Per bank write bursts (Count)
system.mem_ctrl.dram.perBankRdBursts::7          1915                       # Per bank write bursts (Count)
system.mem_ctrl.dram.perBankRdBursts::8          3558                       # Per bank write bursts (Count)
system.mem_ctrl.dram.perBankRdBursts::9          3101                       # Per bank write bursts (Count)
system.mem_ctrl.dram.perBankRdBursts::10         2135                       # Per bank write bursts (Count)
system.mem_ctrl.dram.perBankRdBursts::11         1582                       # Per bank write bursts (Count)
system.mem_ctrl.dram.perBankRdBursts::12        34092                       # Per bank write bursts (Count)
system.mem_ctrl.dram.perBankRdBursts::13        66244                       # Per bank write bursts (Count)
system.mem_ctrl.dram.perBankRdBursts::14         3051                       # Per bank write bursts (Count)
system.mem_ctrl.dram.perBankRdBursts::15        25304                       # Per bank write bursts (Count)
system.mem_ctrl.dram.perBankWrBursts::0           694                       # Per bank write bursts (Count)
system.mem_ctrl.dram.perBankWrBursts::1           401                       # Per bank write bursts (Count)
system.mem_ctrl.dram.perBankWrBursts::2           605                       # Per bank write bursts (Count)
system.mem_ctrl.dram.perBankWrBursts::3           547                       # Per bank write bursts (Count)
system.mem_ctrl.dram.perBankWrBursts::4          1851                       # Per bank write bursts (Count)
system.mem_ctrl.dram.perBankWrBursts::5           674                       # Per bank write bursts (Count)
system.mem_ctrl.dram.perBankWrBursts::6          1926                       # Per bank write bursts (Count)
system.mem_ctrl.dram.perBankWrBursts::7           523                       # Per bank write bursts (Count)
system.mem_ctrl.dram.perBankWrBursts::8           837                       # Per bank write bursts (Count)
system.mem_ctrl.dram.perBankWrBursts::9          1204                       # Per bank write bursts (Count)
system.mem_ctrl.dram.perBankWrBursts::10          657                       # Per bank write bursts (Count)
system.mem_ctrl.dram.perBankWrBursts::11          583                       # Per bank write bursts (Count)
system.mem_ctrl.dram.perBankWrBursts::12          543                       # Per bank write bursts (Count)
system.mem_ctrl.dram.perBankWrBursts::13          366                       # Per bank write bursts (Count)
system.mem_ctrl.dram.perBankWrBursts::14          387                       # Per bank write bursts (Count)
system.mem_ctrl.dram.perBankWrBursts::15          539                       # Per bank write bursts (Count)
system.mem_ctrl.dram.totQLat               2646795777                       # Total ticks spent queuing (Tick)
system.mem_ctrl.dram.totBusLat             1155655000                       # Total ticks spent in databus transfers (Tick)
system.mem_ctrl.dram.totMemAccLat          6980502027                       # Total ticks spent from burst creation until serviced by the DRAM (Tick)
system.mem_ctrl.dram.avgQLat                 11451.50                       # Average queueing delay per DRAM burst ((Tick/Count))
system.mem_ctrl.dram.avgBusLat                5000.00                       # Average bus latency per DRAM burst ((Tick/Count))
system.mem_ctrl.dram.avgMemAccLat            30201.50                       # Average memory access latency per DRAM burst ((Tick/Count))
system.mem_ctrl.dram.readRowHits               137849                       # Number of row buffer hits during reads (Count)
system.mem_ctrl.dram.writeRowHits               10971                       # Number of row buffer hits during writes (Count)
system.mem_ctrl.dram.readRowHitRate             59.64                       # Row buffer hit rate for reads (Ratio)
system.mem_ctrl.dram.writeRowHitRate            88.93                       # Row buffer hit rate for writes (Ratio)
system.mem_ctrl.dram.bytesPerActivate::samples        94649                       # Bytes accessed per row activation (Byte)
system.mem_ctrl.dram.bytesPerActivate::mean   164.628131                       # Bytes accessed per row activation (Byte)
system.mem_ctrl.dram.bytesPerActivate::gmean   123.966763                       # Bytes accessed per row activation (Byte)
system.mem_ctrl.dram.bytesPerActivate::stdev   142.897012                       # Bytes accessed per row activation (Byte)
system.mem_ctrl.dram.bytesPerActivate::0-127        46463     49.09%     49.09% # Bytes accessed per row activation (Byte)
system.mem_ctrl.dram.bytesPerActivate::128-255        22792     24.08%     73.17% # Bytes accessed per row activation (Byte)
system.mem_ctrl.dram.bytesPerActivate::256-383        16753     17.70%     90.87% # Bytes accessed per row activation (Byte)
system.mem_ctrl.dram.bytesPerActivate::384-511         4860      5.13%     96.01% # Bytes accessed per row activation (Byte)
system.mem_ctrl.dram.bytesPerActivate::512-639         2757      2.91%     98.92% # Bytes accessed per row activation (Byte)
system.mem_ctrl.dram.bytesPerActivate::640-767          206      0.22%     99.14% # Bytes accessed per row activation (Byte)
system.mem_ctrl.dram.bytesPerActivate::768-895          100      0.11%     99.24% # Bytes accessed per row activation (Byte)
system.mem_ctrl.dram.bytesPerActivate::896-1023          107      0.11%     99.35% # Bytes accessed per row activation (Byte)
system.mem_ctrl.dram.bytesPerActivate::1024-1151          611      0.65%    100.00% # Bytes accessed per row activation (Byte)
system.mem_ctrl.dram.bytesPerActivate::total        94649                       # Bytes accessed per row activation (Byte)
system.mem_ctrl.dram.dramBytesRead           14792384                       # Total bytes read (Byte)
system.mem_ctrl.dram.dramBytesWritten          789568                       # Total bytes written (Byte)
system.mem_ctrl.dram.avgRdBW                90.859417                       # Average DRAM read bandwidth in MiBytes/s ((Byte/Second))
system.mem_ctrl.dram.avgWrBW                 4.849772                       # Average DRAM write bandwidth in MiBytes/s ((Byte/Second))
system.mem_ctrl.dram.peakBW                  12800.00                       # Theoretical peak bandwidth in MiByte/s ((Byte/Second))
system.mem_ctrl.dram.busUtil                     0.75                       # Data bus utilization in percentage (Ratio)
system.mem_ctrl.dram.busUtilRead                 0.71                       # Data bus utilization in percentage for reads (Ratio)
system.mem_ctrl.dram.busUtilWrite                0.04                       # Data bus utilization in percentage for writes (Ratio)
system.mem_ctrl.dram.pageHitRate                61.13                       # Row buffer hit rate, read and write combined (Ratio)
system.mem_ctrl.dram.power_state.pwrStateResidencyTicks::UNDEFINED 162805183102                       # Cumulative time (in ticks) in various power states (Tick)
system.mem_ctrl.dram.rank0.actEnergy        359349060                       # Energy for activate commands per rank (pJ) (Joule)
system.mem_ctrl.dram.rank0.preEnergy        190994760                       # Energy for precharge commands per rank (pJ) (Joule)
system.mem_ctrl.dram.rank0.readEnergy       657336960                       # Energy for read commands per rank (pJ) (Joule)
system.mem_ctrl.dram.rank0.writeEnergy       37693620                       # Energy for write commands per rank (pJ) (Joule)
system.mem_ctrl.dram.rank0.refreshEnergy 12851507760.000002                       # Energy for refresh commands per rank (pJ) (Joule)
system.mem_ctrl.dram.rank0.actBackEnergy  53015265090                       # Energy for active background per rank (pJ) (Joule)
system.mem_ctrl.dram.rank0.preBackEnergy  17872756800                       # Energy for precharge background per rank (pJ) (Joule)
system.mem_ctrl.dram.rank0.actPowerDownEnergy            0                       # Energy for active power-down per rank (pJ) (Joule)
system.mem_ctrl.dram.rank0.prePowerDownEnergy            0                       # Energy for precharge power-down per rank (pJ) (Joule)
system.mem_ctrl.dram.rank0.selfRefreshEnergy            0                       # Energy for self refresh per rank (pJ) (Joule)
system.mem_ctrl.dram.rank0.totalEnergy    84984904050                       # Total energy per rank (pJ) (Joule)
system.mem_ctrl.dram.rank0.averagePower    522.003676                       # Core power per rank (mW) (Watt)
system.mem_ctrl.dram.rank0.totalIdleTime            0                       # Total Idle time Per DRAM Rank (Tick)
system.mem_ctrl.dram.rank0.pwrStateTime::IDLE  45919017957                       # Time in different power states (Tick)
system.mem_ctrl.dram.rank0.pwrStateTime::REF   5436340000                       # Time in different power states (Tick)
system.mem_ctrl.dram.rank0.pwrStateTime::SREF            0                       # Time in different power states (Tick)
system.mem_ctrl.dram.rank0.pwrStateTime::PRE_PDN            0                       # Time in different power states (Tick)
system.mem_ctrl.dram.rank0.pwrStateTime::ACT 111449825145                       # Time in different power states (Tick)
system.mem_ctrl.dram.rank0.pwrStateTime::ACT_PDN            0                       # Time in different power states (Tick)
system.mem_ctrl.dram.rank1.actEnergy        316437660                       # Energy for activate commands per rank (pJ) (Joule)
system.mem_ctrl.dram.rank1.preEnergy        168198195                       # Energy for precharge commands per rank (pJ) (Joule)
system.mem_ctrl.dram.rank1.readEnergy       992938380                       # Energy for read commands per rank (pJ) (Joule)
system.mem_ctrl.dram.rank1.writeEnergy       26705520                       # Energy for write commands per rank (pJ) (Joule)
system.mem_ctrl.dram.rank1.refreshEnergy 12851507760.000002                       # Energy for refresh commands per rank (pJ) (Joule)
system.mem_ctrl.dram.rank1.actBackEnergy  56072991900                       # Energy for active background per rank (pJ) (Joule)
system.mem_ctrl.dram.rank1.preBackEnergy  15297828960                       # Energy for precharge background per rank (pJ) (Joule)
system.mem_ctrl.dram.rank1.actPowerDownEnergy            0                       # Energy for active power-down per rank (pJ) (Joule)
system.mem_ctrl.dram.rank1.prePowerDownEnergy            0                       # Energy for precharge power-down per rank (pJ) (Joule)
system.mem_ctrl.dram.rank1.selfRefreshEnergy            0                       # Energy for self refresh per rank (pJ) (Joule)
system.mem_ctrl.dram.rank1.totalEnergy    85726608375                       # Total energy per rank (pJ) (Joule)
system.mem_ctrl.dram.rank1.averagePower    526.559454                       # Core power per rank (mW) (Watt)
system.mem_ctrl.dram.rank1.totalIdleTime            0                       # Total Idle time Per DRAM Rank (Tick)
system.mem_ctrl.dram.rank1.pwrStateTime::IDLE  39270291221                       # Time in different power states (Tick)
system.mem_ctrl.dram.rank1.pwrStateTime::REF   5436340000                       # Time in different power states (Tick)
system.mem_ctrl.dram.rank1.pwrStateTime::SREF            0                       # Time in different power states (Tick)
system.mem_ctrl.dram.rank1.pwrStateTime::PRE_PDN            0                       # Time in different power states (Tick)
system.mem_ctrl.dram.rank1.pwrStateTime::ACT 118098551881                       # Time in different power states (Tick)
system.mem_ctrl.dram.rank1.pwrStateTime::ACT_PDN            0                       # Time in different power states (Tick)
system.mem_ctrl.power_state.pwrStateResidencyTicks::UNDEFINED 162805183102                       # Cumulative time (in ticks) in various power states (Tick)
system.membus.transDist::ReadResp              225558                       # Transaction distribution (Count)
system.membus.transDist::WritebackDirty         21741                       # Transaction distribution (Count)
system.membus.transDist::CleanEvict            222161                       # Transaction distribution (Count)
system.membus.transDist::ReadExReq              18344                       # Transaction distribution (Count)
system.membus.transDist::ReadExResp             18344                       # Transaction distribution (Count)
system.membus.transDist::ReadSharedReq         225558                       # Transaction distribution (Count)
system.membus.pktCount_system.cpu.l1d.mem_side_port::system.mem_ctrl.port       181401                       # Packet count per connected requestor and responder (Count)
system.membus.pktCount_system.cpu.l1d.mem_side_port::total       181401                       # Packet count per connected requestor and responder (Count)
system.membus.pktCount_system.cpu.l1i.mem_side_port::system.mem_ctrl.port       550305                       # Packet count per connected requestor and responder (Count)
system.membus.pktCount_system.cpu.l1i.mem_side_port::total       550305                       # Packet count per connected requestor and responder (Count)
system.membus.pktCount::total                  731706                       # Packet count per connected requestor and responder (Count)
system.membus.pktSize_system.cpu.l1d.mem_side_port::system.mem_ctrl.port      5261312                       # Cumulative packet size per connected requestor and responder (Byte)
system.membus.pktSize_system.cpu.l1d.mem_side_port::total      5261312                       # Cumulative packet size per connected requestor and responder (Byte)
system.membus.pktSize_system.cpu.l1i.mem_side_port::system.mem_ctrl.port     11739840                       # Cumulative packet size per connected requestor and responder (Byte)
system.membus.pktSize_system.cpu.l1i.mem_side_port::total     11739840                       # Cumulative packet size per connected requestor and responder (Byte)
system.membus.pktSize::total                 17001152                       # Cumulative packet size per connected requestor and responder (Byte)
system.membus.snoops                                0                       # Total snoops (Count)
system.membus.snoopTraffic                          0                       # Total snoop traffic (Byte)
system.membus.snoopFanout::samples             243902                       # Request fanout histogram (Count)
system.membus.snoopFanout::mean                     0                       # Request fanout histogram (Count)
system.membus.snoopFanout::stdev                    0                       # Request fanout histogram (Count)
system.membus.snoopFanout::underflows               0      0.00%      0.00% # Request fanout histogram (Count)
system.membus.snoopFanout::0                   243902    100.00%    100.00% # Request fanout histogram (Count)
system.membus.snoopFanout::1                        0      0.00%    100.00% # Request fanout histogram (Count)
system.membus.snoopFanout::2                        0      0.00%    100.00% # Request fanout histogram (Count)
system.membus.snoopFanout::overflows                0      0.00%    100.00% # Request fanout histogram (Count)
system.membus.snoopFanout::min_value                0                       # Request fanout histogram (Count)
system.membus.snoopFanout::max_value                0                       # Request fanout histogram (Count)
system.membus.snoopFanout::total               243902                       # Request fanout histogram (Count)
system.membus.power_state.pwrStateResidencyTicks::UNDEFINED 162805183102                       # Cumulative time (in ticks) in various power states (Tick)
system.membus.reqLayer2.occupancy          7663381744                       # Layer occupancy (ticks) (Tick)
system.membus.reqLayer2.utilization               0.0                       # Layer utilization (Ratio)
system.membus.respLayer2.occupancy         4129644713                       # Layer occupancy (ticks) (Tick)
system.membus.respLayer2.utilization              0.0                       # Layer utilization (Ratio)
system.membus.respLayer3.occupancy        12466284810                       # Layer occupancy (ticks) (Tick)
system.membus.respLayer3.utilization              0.1                       # Layer utilization (Ratio)
system.membus.snoop_filter.totRequests         487804                       # Total number of requests made to the snoop filter. (Count)
system.membus.snoop_filter.hitSingleRequests       243902                       # Number of requests hitting in the snoop filter with a single holder of the requested data. (Count)
system.membus.snoop_filter.hitMultiRequests            0                       # Number of requests hitting in the snoop filter with multiple (>1) holders of the requested data. (Count)
system.membus.snoop_filter.totSnoops                0                       # Total number of snoops made to the snoop filter. (Count)
system.membus.snoop_filter.hitSingleSnoops            0                       # Number of snoops hitting in the snoop filter with a single holder of the requested data. (Count)
system.membus.snoop_filter.hitMultiSnoops            0                       # Number of snoops hitting in the snoop filter with multiple (>1) holders of the requested data. (Count)
system.workload.inst.arm                            0                       # number of arm instructions executed (Count)
system.workload.inst.quiesce                        0                       # number of quiesce instructions executed (Count)

---------- End Simulation Statistics   ----------
