
---------- Begin Simulation Statistics ----------
simSeconds                                   1.180311                       # Number of seconds simulated (Second)
simTicks                                 1180311011487                       # Number of ticks simulated (Tick)
finalTick                                1180311011487                       # Number of ticks from beginning of simulation (restored from checkpoints and never reset) (Tick)
simFreq                                  1000000000000                       # The number of ticks per simulated second ((Tick/Second))
hostSeconds                                     51.74                       # Real time elapsed on the host (Second)
hostTickRate                              22813138356                       # The number of ticks simulated per host second (ticks/s) ((Tick/Second))
hostMemory                                    8644708                       # Number of bytes of host memory used (Byte)
simInsts                                     42415895                       # Number of instructions simulated (Count)
simOps                                       68805259                       # Number of ops (including micro ops) simulated (Count)
hostInstRate                                   819720                       # Simulator instruction rate (inst/s) ((Count/Second))
hostOpRate                                    1329693                       # Simulator op (including micro ops) rate (op/s) ((Count/Second))
system.clk_domain.clock                         13333                       # Clock period in ticks (Tick)
system.clk_domain.voltage_domain.voltage            1                       # Voltage in Volts (Volt)
system.cpu.numCycles                         88525539                       # Number of cpu cycles simulated (Cycle)
system.cpu.cpi                               2.087054                       # CPI: cycles per instruction (core level) ((Cycle/Count))
system.cpu.ipc                               0.479144                       # IPC: instructions per cycle (core level) ((Count/Cycle))
system.cpu.numWorkItemsStarted                      0                       # Number of work items this cpu started (Count)
system.cpu.numWorkItemsCompleted                    0                       # Number of work items this cpu completed (Count)
system.cpu.commitStats0.numInsts             42416502                       # Number of instructions committed (thread level) (Count)
system.cpu.commitStats0.numOps               68806052                       # Number of ops (including micro ops) committed (thread level) (Count)
system.cpu.commitStats0.numInstsNotNOP              0                       # Number of instructions committed excluding NOPs or prefetches (Count)
system.cpu.commitStats0.numOpsNotNOP                0                       # Number of Ops (including micro ops) Simulated (Count)
system.cpu.commitStats0.cpi                  2.087054                       # CPI: cycles per instruction (thread level) ((Cycle/Count))
system.cpu.commitStats0.ipc                  0.479144                       # IPC: instructions per cycle (thread level) ((Count/Cycle))
system.cpu.commitStats0.numMemRefs                  0                       # Number of memory references committed (Count)
system.cpu.commitStats0.numFpInsts            1606865                       # Number of float instructions (Count)
system.cpu.commitStats0.numIntInsts          67961778                       # Number of integer instructions (Count)
system.cpu.commitStats0.numLoadInsts          9864833                       # Number of load instructions (Count)
system.cpu.commitStats0.numStoreInsts         6363311                       # Number of store instructions (Count)
system.cpu.commitStats0.numVecInsts                 0                       # Number of vector instructions (Count)
system.cpu.commitStats0.committedInstType::No_OpClass        84872      0.12%      0.12% # Class of committed instruction. (Count)
system.cpu.commitStats0.committedInstType::IntAlu     51997129     75.57%     75.69% # Class of committed instruction. (Count)
system.cpu.commitStats0.committedInstType::IntMult         3695      0.01%     75.70% # Class of committed instruction. (Count)
system.cpu.commitStats0.committedInstType::IntDiv        41458      0.06%     75.76% # Class of committed instruction. (Count)
system.cpu.commitStats0.committedInstType::FloatAdd         8588      0.01%     75.77% # Class of committed instruction. (Count)
system.cpu.commitStats0.committedInstType::FloatCmp            0      0.00%     75.77% # Class of committed instruction. (Count)
system.cpu.commitStats0.committedInstType::FloatCvt         1392      0.00%     75.77% # Class of committed instruction. (Count)
system.cpu.commitStats0.committedInstType::FloatMult            0      0.00%     75.77% # Class of committed instruction. (Count)
system.cpu.commitStats0.committedInstType::FloatMultAcc            0      0.00%     75.77% # Class of committed instruction. (Count)
system.cpu.commitStats0.committedInstType::FloatDiv            0      0.00%     75.77% # Class of committed instruction. (Count)
system.cpu.commitStats0.committedInstType::FloatMisc            0      0.00%     75.77% # Class of committed instruction. (Count)
system.cpu.commitStats0.committedInstType::FloatSqrt            0      0.00%     75.77% # Class of committed instruction. (Count)
system.cpu.commitStats0.committedInstType::SimdAdd         6968      0.01%     75.78% # Class of committed instruction. (Count)
system.cpu.commitStats0.committedInstType::SimdAddAcc            0      0.00%     75.78% # Class of committed instruction. (Count)
system.cpu.commitStats0.committedInstType::SimdAlu        33260      0.05%     75.83% # Class of committed instruction. (Count)
system.cpu.commitStats0.committedInstType::SimdCmp           12      0.00%     75.83% # Class of committed instruction. (Count)
system.cpu.commitStats0.committedInstType::SimdCvt        14180      0.02%     75.85% # Class of committed instruction. (Count)
system.cpu.commitStats0.committedInstType::SimdMisc       382238      0.56%     76.41% # Class of committed instruction. (Count)
system.cpu.commitStats0.committedInstType::SimdMult            0      0.00%     76.41% # Class of committed instruction. (Count)
system.cpu.commitStats0.committedInstType::SimdMultAcc            0      0.00%     76.41% # Class of committed instruction. (Count)
system.cpu.commitStats0.committedInstType::SimdMatMultAcc            0      0.00%     76.41% # Class of committed instruction. (Count)
system.cpu.commitStats0.committedInstType::SimdShift         1952      0.00%     76.41% # Class of committed instruction. (Count)
system.cpu.commitStats0.committedInstType::SimdShiftAcc            0      0.00%     76.41% # Class of committed instruction. (Count)
system.cpu.commitStats0.committedInstType::SimdDiv            0      0.00%     76.41% # Class of committed instruction. (Count)
system.cpu.commitStats0.committedInstType::SimdSqrt            0      0.00%     76.41% # Class of committed instruction. (Count)
system.cpu.commitStats0.committedInstType::SimdFloatAdd          271      0.00%     76.41% # Class of committed instruction. (Count)
system.cpu.commitStats0.committedInstType::SimdFloatAlu            0      0.00%     76.41% # Class of committed instruction. (Count)
system.cpu.commitStats0.committedInstType::SimdFloatCmp            0      0.00%     76.41% # Class of committed instruction. (Count)
system.cpu.commitStats0.committedInstType::SimdFloatCvt         1622      0.00%     76.41% # Class of committed instruction. (Count)
system.cpu.commitStats0.committedInstType::SimdFloatDiv           91      0.00%     76.41% # Class of committed instruction. (Count)
system.cpu.commitStats0.committedInstType::SimdFloatMisc            0      0.00%     76.41% # Class of committed instruction. (Count)
system.cpu.commitStats0.committedInstType::SimdFloatMult            0      0.00%     76.41% # Class of committed instruction. (Count)
system.cpu.commitStats0.committedInstType::SimdFloatMultAcc            0      0.00%     76.41% # Class of committed instruction. (Count)
system.cpu.commitStats0.committedInstType::SimdFloatMatMultAcc            0      0.00%     76.41% # Class of committed instruction. (Count)
system.cpu.commitStats0.committedInstType::SimdFloatSqrt          180      0.00%     76.41% # Class of committed instruction. (Count)
system.cpu.commitStats0.committedInstType::SimdReduceAdd            0      0.00%     76.41% # Class of committed instruction. (Count)
system.cpu.commitStats0.committedInstType::SimdReduceAlu            0      0.00%     76.41% # Class of committed instruction. (Count)
system.cpu.commitStats0.committedInstType::SimdReduceCmp            0      0.00%     76.41% # Class of committed instruction. (Count)
system.cpu.commitStats0.committedInstType::SimdFloatReduceAdd            0      0.00%     76.41% # Class of committed instruction. (Count)
system.cpu.commitStats0.committedInstType::SimdFloatReduceCmp            0      0.00%     76.41% # Class of committed instruction. (Count)
system.cpu.commitStats0.committedInstType::SimdAes            0      0.00%     76.41% # Class of committed instruction. (Count)
system.cpu.commitStats0.committedInstType::SimdAesMix            0      0.00%     76.41% # Class of committed instruction. (Count)
system.cpu.commitStats0.committedInstType::SimdSha1Hash            0      0.00%     76.41% # Class of committed instruction. (Count)
system.cpu.commitStats0.committedInstType::SimdSha1Hash2            0      0.00%     76.41% # Class of committed instruction. (Count)
system.cpu.commitStats0.committedInstType::SimdSha256Hash            0      0.00%     76.41% # Class of committed instruction. (Count)
system.cpu.commitStats0.committedInstType::SimdSha256Hash2            0      0.00%     76.41% # Class of committed instruction. (Count)
system.cpu.commitStats0.committedInstType::SimdShaSigma2            0      0.00%     76.41% # Class of committed instruction. (Count)
system.cpu.commitStats0.committedInstType::SimdShaSigma3            0      0.00%     76.41% # Class of committed instruction. (Count)
system.cpu.commitStats0.committedInstType::SimdPredAlu            0      0.00%     76.41% # Class of committed instruction. (Count)
system.cpu.commitStats0.committedInstType::Matrix            0      0.00%     76.41% # Class of committed instruction. (Count)
system.cpu.commitStats0.committedInstType::MatrixMov            0      0.00%     76.41% # Class of committed instruction. (Count)
system.cpu.commitStats0.committedInstType::MatrixOP            0      0.00%     76.41% # Class of committed instruction. (Count)
system.cpu.commitStats0.committedInstType::MemRead      9444675     13.73%     90.14% # Class of committed instruction. (Count)
system.cpu.commitStats0.committedInstType::MemWrite      5907364      8.59%     98.73% # Class of committed instruction. (Count)
system.cpu.commitStats0.committedInstType::FloatMemRead       420158      0.61%     99.34% # Class of committed instruction. (Count)
system.cpu.commitStats0.committedInstType::FloatMemWrite       455947      0.66%    100.00% # Class of committed instruction. (Count)
system.cpu.commitStats0.committedInstType::IprAccess            0      0.00%    100.00% # Class of committed instruction. (Count)
system.cpu.commitStats0.committedInstType::InstPrefetch            0      0.00%    100.00% # Class of committed instruction. (Count)
system.cpu.commitStats0.committedInstType::SimdUnitStrideLoad            0      0.00%    100.00% # Class of committed instruction. (Count)
system.cpu.commitStats0.committedInstType::SimdUnitStrideStore            0      0.00%    100.00% # Class of committed instruction. (Count)
system.cpu.commitStats0.committedInstType::SimdUnitStrideMaskLoad            0      0.00%    100.00% # Class of committed instruction. (Count)
system.cpu.commitStats0.committedInstType::SimdUnitStrideMaskStore            0      0.00%    100.00% # Class of committed instruction. (Count)
system.cpu.commitStats0.committedInstType::SimdStridedLoad            0      0.00%    100.00% # Class of committed instruction. (Count)
system.cpu.commitStats0.committedInstType::SimdStridedStore            0      0.00%    100.00% # Class of committed instruction. (Count)
system.cpu.commitStats0.committedInstType::SimdIndexedLoad            0      0.00%    100.00% # Class of committed instruction. (Count)
system.cpu.commitStats0.committedInstType::SimdIndexedStore            0      0.00%    100.00% # Class of committed instruction. (Count)
system.cpu.commitStats0.committedInstType::SimdWholeRegisterLoad            0      0.00%    100.00% # Class of committed instruction. (Count)
system.cpu.commitStats0.committedInstType::SimdWholeRegisterStore            0      0.00%    100.00% # Class of committed instruction. (Count)
system.cpu.commitStats0.committedInstType::SimdUnitStrideFaultOnlyFirstLoad            0      0.00%    100.00% # Class of committed instruction. (Count)
system.cpu.commitStats0.committedInstType::SimdUnitStrideSegmentedLoad            0      0.00%    100.00% # Class of committed instruction. (Count)
system.cpu.commitStats0.committedInstType::SimdUnitStrideSegmentedStore            0      0.00%    100.00% # Class of committed instruction. (Count)
system.cpu.commitStats0.committedInstType::SimdExt            0      0.00%    100.00% # Class of committed instruction. (Count)
system.cpu.commitStats0.committedInstType::SimdFloatExt            0      0.00%    100.00% # Class of committed instruction. (Count)
system.cpu.commitStats0.committedInstType::SimdConfig            0      0.00%    100.00% # Class of committed instruction. (Count)
system.cpu.commitStats0.committedInstType::total     68806052                       # Class of committed instruction. (Count)
system.cpu.commitStats0.committedControl::IsControl      5752916                       # Class of control type instructions committed (Count)
system.cpu.commitStats0.committedControl::IsDirectControl      5628287                       # Class of control type instructions committed (Count)
system.cpu.commitStats0.committedControl::IsIndirectControl       124315                       # Class of control type instructions committed (Count)
system.cpu.commitStats0.committedControl::IsCondControl      5508676                       # Class of control type instructions committed (Count)
system.cpu.commitStats0.committedControl::IsUncondControl       243926                       # Class of control type instructions committed (Count)
system.cpu.commitStats0.committedControl::IsCall        70379                       # Class of control type instructions committed (Count)
system.cpu.commitStats0.committedControl::IsReturn        70374                       # Class of control type instructions committed (Count)
system.cpu.exec_context.thread_0.numMatAluAccesses            0                       # Number of matrix alu accesses (Count)
system.cpu.exec_context.thread_0.numCallsReturns       140753                       # Number of times a function call or return occured (Count)
system.cpu.exec_context.thread_0.numMatInsts            0                       # Number of matrix instructions (Count)
system.cpu.exec_context.thread_0.numIdleCycles            0                       # Number of idle cycles (Cycle)
system.cpu.exec_context.thread_0.numBusyCycles     88525539                       # Number of busy cycles (Cycle)
system.cpu.exec_context.thread_0.notIdleFraction            1                       # Percentage of non-idle cycles (Ratio)
system.cpu.exec_context.thread_0.idleFraction            0                       # Percentage of idle cycles (Ratio)
system.cpu.executeStats0.numInsts                   0                       # Number of executed instructions (Count)
system.cpu.executeStats0.numNop                     0                       # Number of nop insts executed (Count)
system.cpu.executeStats0.numBranches                0                       # Number of branches executed (Count)
system.cpu.executeStats0.numLoadInsts               0                       # Number of load instructions executed (Count)
system.cpu.executeStats0.numStoreInsts       16228144                       # Number of stores executed (Count)
system.cpu.executeStats0.instRate                   0                       # Inst execution rate ((Count/Cycle))
system.cpu.executeStats0.numFpAluAccesses      1606865                       # Number of float alu accesses (Count)
system.cpu.executeStats0.numFpRegReads        2638151                       # Number of times the floating registers were read (Count)
system.cpu.executeStats0.numFpRegWrites       1141107                       # Number of times the floating registers were written (Count)
system.cpu.executeStats0.numIntAluAccesses     67961778                       # Number of integer alu accesses (Count)
system.cpu.executeStats0.numIntRegReads     100238142                       # Number of times the integer registers were read (Count)
system.cpu.executeStats0.numIntRegWrites     50884812                       # Number of times the integer registers were written (Count)
system.cpu.executeStats0.numMemRefs          16228144                       # Number of memory refs (Count)
system.cpu.executeStats0.numMiscRegReads     27601518                       # Number of times the Misc registers were read (Count)
system.cpu.executeStats0.numMiscRegWrites          783                       # Number of times the Misc registers were written (Count)
system.cpu.executeStats0.numVecAluAccesses            0                       # Number of vector alu accesses (Count)
system.cpu.executeStats0.numDiscardedOps            0                       # Number of ops (including micro ops) which were discarded before commit (Count)
system.cpu.fetchStats0.numInsts              42416502                       # Number of instructions fetched (thread level) (Count)
system.cpu.fetchStats0.numOps                68806052                       # Number of ops (including micro ops) fetched (thread level) (Count)
system.cpu.fetchStats0.fetchRate             0.479144                       # Number of inst fetches per cycle ((Count/Cycle))
system.cpu.fetchStats0.numBranches            5752916                       # Number of branches fetched (Count)
system.cpu.fetchStats0.branchRate            0.064986                       # Number of branch fetches per cycle (Ratio)
system.cpu.fetchStats0.numFetchSuspends             0                       # Number of times Execute suspended instruction fetching (Count)
system.cpu.interrupts.clk_domain.clock         213328                       # Clock period in ticks (Tick)
system.cpu.l1d.demandHits::cpu.data          14697593                       # number of demand (read+write) hits (Count)
system.cpu.l1d.demandHits::total             14697593                       # number of demand (read+write) hits (Count)
system.cpu.l1d.overallHits::cpu.data         14697593                       # number of overall hits (Count)
system.cpu.l1d.overallHits::total            14697593                       # number of overall hits (Count)
system.cpu.l1d.demandMisses::cpu.data         1522942                       # number of demand (read+write) misses (Count)
system.cpu.l1d.demandMisses::total            1522942                       # number of demand (read+write) misses (Count)
system.cpu.l1d.overallMisses::cpu.data        1522942                       # number of overall misses (Count)
system.cpu.l1d.overallMisses::total           1522942                       # number of overall misses (Count)
system.cpu.l1d.demandMissLatency::cpu.data 315208812916                       # number of demand (read+write) miss ticks (Tick)
system.cpu.l1d.demandMissLatency::total  315208812916                       # number of demand (read+write) miss ticks (Tick)
system.cpu.l1d.overallMissLatency::cpu.data 315208812916                       # number of overall miss ticks (Tick)
system.cpu.l1d.overallMissLatency::total 315208812916                       # number of overall miss ticks (Tick)
system.cpu.l1d.demandAccesses::cpu.data      16220535                       # number of demand (read+write) accesses (Count)
system.cpu.l1d.demandAccesses::total         16220535                       # number of demand (read+write) accesses (Count)
system.cpu.l1d.overallAccesses::cpu.data     16220535                       # number of overall (read+write) accesses (Count)
system.cpu.l1d.overallAccesses::total        16220535                       # number of overall (read+write) accesses (Count)
system.cpu.l1d.demandMissRate::cpu.data      0.093890                       # miss rate for demand accesses (Ratio)
system.cpu.l1d.demandMissRate::total         0.093890                       # miss rate for demand accesses (Ratio)
system.cpu.l1d.overallMissRate::cpu.data     0.093890                       # miss rate for overall accesses (Ratio)
system.cpu.l1d.overallMissRate::total        0.093890                       # miss rate for overall accesses (Ratio)
system.cpu.l1d.demandAvgMissLatency::cpu.data 206973.616143                       # average overall miss latency in ticks ((Tick/Count))
system.cpu.l1d.demandAvgMissLatency::total 206973.616143                       # average overall miss latency in ticks ((Tick/Count))
system.cpu.l1d.overallAvgMissLatency::cpu.data 206973.616143                       # average overall miss latency ((Tick/Count))
system.cpu.l1d.overallAvgMissLatency::total 206973.616143                       # average overall miss latency ((Tick/Count))
system.cpu.l1d.blockedCycles::no_mshrs              0                       # number of cycles access was blocked (Cycle)
system.cpu.l1d.blockedCycles::no_targets            0                       # number of cycles access was blocked (Cycle)
system.cpu.l1d.blockedCauses::no_mshrs              0                       # number of times access was blocked (Count)
system.cpu.l1d.blockedCauses::no_targets            0                       # number of times access was blocked (Count)
system.cpu.l1d.avgBlocked::no_mshrs               nan                       # average number of cycles each access was blocked ((Cycle/Count))
system.cpu.l1d.avgBlocked::no_targets             nan                       # average number of cycles each access was blocked ((Cycle/Count))
system.cpu.l1d.writebacks::writebacks         1091551                       # number of writebacks (Count)
system.cpu.l1d.writebacks::total              1091551                       # number of writebacks (Count)
system.cpu.l1d.demandMshrMisses::cpu.data      1522942                       # number of demand (read+write) MSHR misses (Count)
system.cpu.l1d.demandMshrMisses::total        1522942                       # number of demand (read+write) MSHR misses (Count)
system.cpu.l1d.overallMshrMisses::cpu.data      1522942                       # number of overall MSHR misses (Count)
system.cpu.l1d.overallMshrMisses::total       1522942                       # number of overall MSHR misses (Count)
system.cpu.l1d.demandMshrMissLatency::cpu.data 294903427230                       # number of demand (read+write) MSHR miss ticks (Tick)
system.cpu.l1d.demandMshrMissLatency::total 294903427230                       # number of demand (read+write) MSHR miss ticks (Tick)
system.cpu.l1d.overallMshrMissLatency::cpu.data 294903427230                       # number of overall MSHR miss ticks (Tick)
system.cpu.l1d.overallMshrMissLatency::total 294903427230                       # number of overall MSHR miss ticks (Tick)
system.cpu.l1d.demandMshrMissRate::cpu.data     0.093890                       # mshr miss ratio for demand accesses (Ratio)
system.cpu.l1d.demandMshrMissRate::total     0.093890                       # mshr miss ratio for demand accesses (Ratio)
system.cpu.l1d.overallMshrMissRate::cpu.data     0.093890                       # mshr miss ratio for overall accesses (Ratio)
system.cpu.l1d.overallMshrMissRate::total     0.093890                       # mshr miss ratio for overall accesses (Ratio)
system.cpu.l1d.demandAvgMshrMissLatency::cpu.data 193640.616143                       # average overall mshr miss latency ((Tick/Count))
system.cpu.l1d.demandAvgMshrMissLatency::total 193640.616143                       # average overall mshr miss latency ((Tick/Count))
system.cpu.l1d.overallAvgMshrMissLatency::cpu.data 193640.616143                       # average overall mshr miss latency ((Tick/Count))
system.cpu.l1d.overallAvgMshrMissLatency::total 193640.616143                       # average overall mshr miss latency ((Tick/Count))
system.cpu.l1d.replacements                   1522958                       # number of replacements (Count)
system.cpu.l1d.LockedRMWReadReq.hits::cpu.data         3456                       # number of LockedRMWReadReq hits (Count)
system.cpu.l1d.LockedRMWReadReq.hits::total         3456                       # number of LockedRMWReadReq hits (Count)
system.cpu.l1d.LockedRMWReadReq.misses::cpu.data           80                       # number of LockedRMWReadReq misses (Count)
system.cpu.l1d.LockedRMWReadReq.misses::total           80                       # number of LockedRMWReadReq misses (Count)
system.cpu.l1d.LockedRMWReadReq.missLatency::cpu.data     16772914                       # number of LockedRMWReadReq miss ticks (Tick)
system.cpu.l1d.LockedRMWReadReq.missLatency::total     16772914                       # number of LockedRMWReadReq miss ticks (Tick)
system.cpu.l1d.LockedRMWReadReq.accesses::cpu.data         3536                       # number of LockedRMWReadReq accesses(hits+misses) (Count)
system.cpu.l1d.LockedRMWReadReq.accesses::total         3536                       # number of LockedRMWReadReq accesses(hits+misses) (Count)
system.cpu.l1d.LockedRMWReadReq.missRate::cpu.data     0.022624                       # miss rate for LockedRMWReadReq accesses (Ratio)
system.cpu.l1d.LockedRMWReadReq.missRate::total     0.022624                       # miss rate for LockedRMWReadReq accesses (Ratio)
system.cpu.l1d.LockedRMWReadReq.avgMissLatency::cpu.data 209661.425000                       # average LockedRMWReadReq miss latency ((Tick/Count))
system.cpu.l1d.LockedRMWReadReq.avgMissLatency::total 209661.425000                       # average LockedRMWReadReq miss latency ((Tick/Count))
system.cpu.l1d.LockedRMWReadReq.mshrMisses::cpu.data           80                       # number of LockedRMWReadReq MSHR misses (Count)
system.cpu.l1d.LockedRMWReadReq.mshrMisses::total           80                       # number of LockedRMWReadReq MSHR misses (Count)
system.cpu.l1d.LockedRMWReadReq.mshrMissLatency::cpu.data     78558036                       # number of LockedRMWReadReq MSHR miss ticks (Tick)
system.cpu.l1d.LockedRMWReadReq.mshrMissLatency::total     78558036                       # number of LockedRMWReadReq MSHR miss ticks (Tick)
system.cpu.l1d.LockedRMWReadReq.mshrMissRate::cpu.data     0.022624                       # mshr miss rate for LockedRMWReadReq accesses (Ratio)
system.cpu.l1d.LockedRMWReadReq.mshrMissRate::total     0.022624                       # mshr miss rate for LockedRMWReadReq accesses (Ratio)
system.cpu.l1d.LockedRMWReadReq.avgMshrMissLatency::cpu.data 981975.450000                       # average LockedRMWReadReq mshr miss latency ((Tick/Count))
system.cpu.l1d.LockedRMWReadReq.avgMshrMissLatency::total 981975.450000                       # average LockedRMWReadReq mshr miss latency ((Tick/Count))
system.cpu.l1d.LockedRMWWriteReq.hits::cpu.data         3536                       # number of LockedRMWWriteReq hits (Count)
system.cpu.l1d.LockedRMWWriteReq.hits::total         3536                       # number of LockedRMWWriteReq hits (Count)
system.cpu.l1d.LockedRMWWriteReq.accesses::cpu.data         3536                       # number of LockedRMWWriteReq accesses(hits+misses) (Count)
system.cpu.l1d.LockedRMWWriteReq.accesses::total         3536                       # number of LockedRMWWriteReq accesses(hits+misses) (Count)
system.cpu.l1d.ReadReq.hits::cpu.data         9218115                       # number of ReadReq hits (Count)
system.cpu.l1d.ReadReq.hits::total            9218115                       # number of ReadReq hits (Count)
system.cpu.l1d.ReadReq.misses::cpu.data        642956                       # number of ReadReq misses (Count)
system.cpu.l1d.ReadReq.misses::total           642956                       # number of ReadReq misses (Count)
system.cpu.l1d.ReadReq.missLatency::cpu.data 133410837979                       # number of ReadReq miss ticks (Tick)
system.cpu.l1d.ReadReq.missLatency::total 133410837979                       # number of ReadReq miss ticks (Tick)
system.cpu.l1d.ReadReq.accesses::cpu.data      9861071                       # number of ReadReq accesses(hits+misses) (Count)
system.cpu.l1d.ReadReq.accesses::total        9861071                       # number of ReadReq accesses(hits+misses) (Count)
system.cpu.l1d.ReadReq.missRate::cpu.data     0.065201                       # miss rate for ReadReq accesses (Ratio)
system.cpu.l1d.ReadReq.missRate::total       0.065201                       # miss rate for ReadReq accesses (Ratio)
system.cpu.l1d.ReadReq.avgMissLatency::cpu.data 207496.061906                       # average ReadReq miss latency ((Tick/Count))
system.cpu.l1d.ReadReq.avgMissLatency::total 207496.061906                       # average ReadReq miss latency ((Tick/Count))
system.cpu.l1d.ReadReq.mshrMisses::cpu.data       642956                       # number of ReadReq MSHR misses (Count)
system.cpu.l1d.ReadReq.mshrMisses::total       642956                       # number of ReadReq MSHR misses (Count)
system.cpu.l1d.ReadReq.mshrMissLatency::cpu.data 124838305631                       # number of ReadReq MSHR miss ticks (Tick)
system.cpu.l1d.ReadReq.mshrMissLatency::total 124838305631                       # number of ReadReq MSHR miss ticks (Tick)
system.cpu.l1d.ReadReq.mshrMissRate::cpu.data     0.065201                       # mshr miss rate for ReadReq accesses (Ratio)
system.cpu.l1d.ReadReq.mshrMissRate::total     0.065201                       # mshr miss rate for ReadReq accesses (Ratio)
system.cpu.l1d.ReadReq.avgMshrMissLatency::cpu.data 194163.061906                       # average ReadReq mshr miss latency ((Tick/Count))
system.cpu.l1d.ReadReq.avgMshrMissLatency::total 194163.061906                       # average ReadReq mshr miss latency ((Tick/Count))
system.cpu.l1d.WriteReq.hits::cpu.data        5479478                       # number of WriteReq hits (Count)
system.cpu.l1d.WriteReq.hits::total           5479478                       # number of WriteReq hits (Count)
system.cpu.l1d.WriteReq.misses::cpu.data       879986                       # number of WriteReq misses (Count)
system.cpu.l1d.WriteReq.misses::total          879986                       # number of WriteReq misses (Count)
system.cpu.l1d.WriteReq.missLatency::cpu.data 181797974937                       # number of WriteReq miss ticks (Tick)
system.cpu.l1d.WriteReq.missLatency::total 181797974937                       # number of WriteReq miss ticks (Tick)
system.cpu.l1d.WriteReq.accesses::cpu.data      6359464                       # number of WriteReq accesses(hits+misses) (Count)
system.cpu.l1d.WriteReq.accesses::total       6359464                       # number of WriteReq accesses(hits+misses) (Count)
system.cpu.l1d.WriteReq.missRate::cpu.data     0.138374                       # miss rate for WriteReq accesses (Ratio)
system.cpu.l1d.WriteReq.missRate::total      0.138374                       # miss rate for WriteReq accesses (Ratio)
system.cpu.l1d.WriteReq.avgMissLatency::cpu.data 206591.894572                       # average WriteReq miss latency ((Tick/Count))
system.cpu.l1d.WriteReq.avgMissLatency::total 206591.894572                       # average WriteReq miss latency ((Tick/Count))
system.cpu.l1d.WriteReq.mshrMisses::cpu.data       879986                       # number of WriteReq MSHR misses (Count)
system.cpu.l1d.WriteReq.mshrMisses::total       879986                       # number of WriteReq MSHR misses (Count)
system.cpu.l1d.WriteReq.mshrMissLatency::cpu.data 170065121599                       # number of WriteReq MSHR miss ticks (Tick)
system.cpu.l1d.WriteReq.mshrMissLatency::total 170065121599                       # number of WriteReq MSHR miss ticks (Tick)
system.cpu.l1d.WriteReq.mshrMissRate::cpu.data     0.138374                       # mshr miss rate for WriteReq accesses (Ratio)
system.cpu.l1d.WriteReq.mshrMissRate::total     0.138374                       # mshr miss rate for WriteReq accesses (Ratio)
system.cpu.l1d.WriteReq.avgMshrMissLatency::cpu.data 193258.894572                       # average WriteReq mshr miss latency ((Tick/Count))
system.cpu.l1d.WriteReq.avgMshrMissLatency::total 193258.894572                       # average WriteReq mshr miss latency ((Tick/Count))
system.cpu.l1d.power_state.pwrStateResidencyTicks::UNDEFINED 1180311011487                       # Cumulative time (in ticks) in various power states (Tick)
system.cpu.l1d.tags.tagsInUse               63.998740                       # Average ticks per tags in use ((Tick/Count))
system.cpu.l1d.tags.totalRefs                16227009                       # Total number of references to valid blocks. (Count)
system.cpu.l1d.tags.sampledRefs               1522958                       # Sample count of references to valid blocks. (Count)
system.cpu.l1d.tags.avgRefs                 10.654929                       # Average number of references to valid blocks. ((Count/Count))
system.cpu.l1d.tags.warmupTick                 479988                       # The tick when the warmup percentage was hit. (Tick)
system.cpu.l1d.tags.occupancies::cpu.data    63.998740                       # Average occupied blocks per tick, per requestor ((Count/Tick))
system.cpu.l1d.tags.avgOccs::cpu.data        0.999980                       # Average percentage of cache occupancy ((Ratio/Tick))
system.cpu.l1d.tags.avgOccs::total           0.999980                       # Average percentage of cache occupancy ((Ratio/Tick))
system.cpu.l1d.tags.occupanciesTaskId::1024           64                       # Occupied blocks per task id (Count)
system.cpu.l1d.tags.ageTaskId_1024::0               7                       # Occupied blocks per task id, per block age (Count)
system.cpu.l1d.tags.ageTaskId_1024::1              57                       # Occupied blocks per task id, per block age (Count)
system.cpu.l1d.tags.ratioOccsTaskId::1024            1                       # Ratio of occupied blocks and all blocks, per task id (Ratio)
system.cpu.l1d.tags.tagAccesses              33978236                       # Number of tag accesses (Count)
system.cpu.l1d.tags.dataAccesses             33978236                       # Number of data accesses (Count)
system.cpu.l1d.tags.power_state.pwrStateResidencyTicks::UNDEFINED 1180311011487                       # Cumulative time (in ticks) in various power states (Tick)
system.cpu.l1i.demandHits::cpu.inst          49193467                       # number of demand (read+write) hits (Count)
system.cpu.l1i.demandHits::total             49193467                       # number of demand (read+write) hits (Count)
system.cpu.l1i.overallHits::cpu.inst         49193467                       # number of overall hits (Count)
system.cpu.l1i.overallHits::total            49193467                       # number of overall hits (Count)
system.cpu.l1i.demandMisses::cpu.inst           40427                       # number of demand (read+write) misses (Count)
system.cpu.l1i.demandMisses::total              40427                       # number of demand (read+write) misses (Count)
system.cpu.l1i.overallMisses::cpu.inst          40427                       # number of overall misses (Count)
system.cpu.l1i.overallMisses::total             40427                       # number of overall misses (Count)
system.cpu.l1i.demandMissLatency::cpu.inst   8655116950                       # number of demand (read+write) miss ticks (Tick)
system.cpu.l1i.demandMissLatency::total    8655116950                       # number of demand (read+write) miss ticks (Tick)
system.cpu.l1i.overallMissLatency::cpu.inst   8655116950                       # number of overall miss ticks (Tick)
system.cpu.l1i.overallMissLatency::total   8655116950                       # number of overall miss ticks (Tick)
system.cpu.l1i.demandAccesses::cpu.inst      49233894                       # number of demand (read+write) accesses (Count)
system.cpu.l1i.demandAccesses::total         49233894                       # number of demand (read+write) accesses (Count)
system.cpu.l1i.overallAccesses::cpu.inst     49233894                       # number of overall (read+write) accesses (Count)
system.cpu.l1i.overallAccesses::total        49233894                       # number of overall (read+write) accesses (Count)
system.cpu.l1i.demandMissRate::cpu.inst      0.000821                       # miss rate for demand accesses (Ratio)
system.cpu.l1i.demandMissRate::total         0.000821                       # miss rate for demand accesses (Ratio)
system.cpu.l1i.overallMissRate::cpu.inst     0.000821                       # miss rate for overall accesses (Ratio)
system.cpu.l1i.overallMissRate::total        0.000821                       # miss rate for overall accesses (Ratio)
system.cpu.l1i.demandAvgMissLatency::cpu.inst 214092.486457                       # average overall miss latency in ticks ((Tick/Count))
system.cpu.l1i.demandAvgMissLatency::total 214092.486457                       # average overall miss latency in ticks ((Tick/Count))
system.cpu.l1i.overallAvgMissLatency::cpu.inst 214092.486457                       # average overall miss latency ((Tick/Count))
system.cpu.l1i.overallAvgMissLatency::total 214092.486457                       # average overall miss latency ((Tick/Count))
system.cpu.l1i.blockedCycles::no_mshrs              0                       # number of cycles access was blocked (Cycle)
system.cpu.l1i.blockedCycles::no_targets            0                       # number of cycles access was blocked (Cycle)
system.cpu.l1i.blockedCauses::no_mshrs              0                       # number of times access was blocked (Count)
system.cpu.l1i.blockedCauses::no_targets            0                       # number of times access was blocked (Count)
system.cpu.l1i.avgBlocked::no_mshrs               nan                       # average number of cycles each access was blocked ((Cycle/Count))
system.cpu.l1i.avgBlocked::no_targets             nan                       # average number of cycles each access was blocked ((Cycle/Count))
system.cpu.l1i.demandMshrMisses::cpu.inst        40427                       # number of demand (read+write) MSHR misses (Count)
system.cpu.l1i.demandMshrMisses::total          40427                       # number of demand (read+write) MSHR misses (Count)
system.cpu.l1i.overallMshrMisses::cpu.inst        40427                       # number of overall MSHR misses (Count)
system.cpu.l1i.overallMshrMisses::total         40427                       # number of overall MSHR misses (Count)
system.cpu.l1i.demandMshrMissLatency::cpu.inst   8116103759                       # number of demand (read+write) MSHR miss ticks (Tick)
system.cpu.l1i.demandMshrMissLatency::total   8116103759                       # number of demand (read+write) MSHR miss ticks (Tick)
system.cpu.l1i.overallMshrMissLatency::cpu.inst   8116103759                       # number of overall MSHR miss ticks (Tick)
system.cpu.l1i.overallMshrMissLatency::total   8116103759                       # number of overall MSHR miss ticks (Tick)
system.cpu.l1i.demandMshrMissRate::cpu.inst     0.000821                       # mshr miss ratio for demand accesses (Ratio)
system.cpu.l1i.demandMshrMissRate::total     0.000821                       # mshr miss ratio for demand accesses (Ratio)
system.cpu.l1i.overallMshrMissRate::cpu.inst     0.000821                       # mshr miss ratio for overall accesses (Ratio)
system.cpu.l1i.overallMshrMissRate::total     0.000821                       # mshr miss ratio for overall accesses (Ratio)
system.cpu.l1i.demandAvgMshrMissLatency::cpu.inst 200759.486457                       # average overall mshr miss latency ((Tick/Count))
system.cpu.l1i.demandAvgMshrMissLatency::total 200759.486457                       # average overall mshr miss latency ((Tick/Count))
system.cpu.l1i.overallAvgMshrMissLatency::cpu.inst 200759.486457                       # average overall mshr miss latency ((Tick/Count))
system.cpu.l1i.overallAvgMshrMissLatency::total 200759.486457                       # average overall mshr miss latency ((Tick/Count))
system.cpu.l1i.replacements                     40363                       # number of replacements (Count)
system.cpu.l1i.ReadReq.hits::cpu.inst        49193467                       # number of ReadReq hits (Count)
system.cpu.l1i.ReadReq.hits::total           49193467                       # number of ReadReq hits (Count)
system.cpu.l1i.ReadReq.misses::cpu.inst         40427                       # number of ReadReq misses (Count)
system.cpu.l1i.ReadReq.misses::total            40427                       # number of ReadReq misses (Count)
system.cpu.l1i.ReadReq.missLatency::cpu.inst   8655116950                       # number of ReadReq miss ticks (Tick)
system.cpu.l1i.ReadReq.missLatency::total   8655116950                       # number of ReadReq miss ticks (Tick)
system.cpu.l1i.ReadReq.accesses::cpu.inst     49233894                       # number of ReadReq accesses(hits+misses) (Count)
system.cpu.l1i.ReadReq.accesses::total       49233894                       # number of ReadReq accesses(hits+misses) (Count)
system.cpu.l1i.ReadReq.missRate::cpu.inst     0.000821                       # miss rate for ReadReq accesses (Ratio)
system.cpu.l1i.ReadReq.missRate::total       0.000821                       # miss rate for ReadReq accesses (Ratio)
system.cpu.l1i.ReadReq.avgMissLatency::cpu.inst 214092.486457                       # average ReadReq miss latency ((Tick/Count))
system.cpu.l1i.ReadReq.avgMissLatency::total 214092.486457                       # average ReadReq miss latency ((Tick/Count))
system.cpu.l1i.ReadReq.mshrMisses::cpu.inst        40427                       # number of ReadReq MSHR misses (Count)
system.cpu.l1i.ReadReq.mshrMisses::total        40427                       # number of ReadReq MSHR misses (Count)
system.cpu.l1i.ReadReq.mshrMissLatency::cpu.inst   8116103759                       # number of ReadReq MSHR miss ticks (Tick)
system.cpu.l1i.ReadReq.mshrMissLatency::total   8116103759                       # number of ReadReq MSHR miss ticks (Tick)
system.cpu.l1i.ReadReq.mshrMissRate::cpu.inst     0.000821                       # mshr miss rate for ReadReq accesses (Ratio)
system.cpu.l1i.ReadReq.mshrMissRate::total     0.000821                       # mshr miss rate for ReadReq accesses (Ratio)
system.cpu.l1i.ReadReq.avgMshrMissLatency::cpu.inst 200759.486457                       # average ReadReq mshr miss latency ((Tick/Count))
system.cpu.l1i.ReadReq.avgMshrMissLatency::total 200759.486457                       # average ReadReq mshr miss latency ((Tick/Count))
system.cpu.l1i.power_state.pwrStateResidencyTicks::UNDEFINED 1180311011487                       # Cumulative time (in ticks) in various power states (Tick)
system.cpu.l1i.tags.tagsInUse               63.996303                       # Average ticks per tags in use ((Tick/Count))
system.cpu.l1i.tags.totalRefs                49111231                       # Total number of references to valid blocks. (Count)
system.cpu.l1i.tags.sampledRefs                 40363                       # Sample count of references to valid blocks. (Count)
system.cpu.l1i.tags.avgRefs               1216.738870                       # Average number of references to valid blocks. ((Count/Count))
system.cpu.l1i.tags.warmupTick                 199995                       # The tick when the warmup percentage was hit. (Tick)
system.cpu.l1i.tags.occupancies::cpu.inst    63.996303                       # Average occupied blocks per tick, per requestor ((Count/Tick))
system.cpu.l1i.tags.avgOccs::cpu.inst        0.999942                       # Average percentage of cache occupancy ((Ratio/Tick))
system.cpu.l1i.tags.avgOccs::total           0.999942                       # Average percentage of cache occupancy ((Ratio/Tick))
system.cpu.l1i.tags.occupanciesTaskId::1024           64                       # Occupied blocks per task id (Count)
system.cpu.l1i.tags.ageTaskId_1024::0               8                       # Occupied blocks per task id, per block age (Count)
system.cpu.l1i.tags.ageTaskId_1024::1              20                       # Occupied blocks per task id, per block age (Count)
system.cpu.l1i.tags.ageTaskId_1024::2              15                       # Occupied blocks per task id, per block age (Count)
system.cpu.l1i.tags.ageTaskId_1024::3              12                       # Occupied blocks per task id, per block age (Count)
system.cpu.l1i.tags.ageTaskId_1024::4               9                       # Occupied blocks per task id, per block age (Count)
system.cpu.l1i.tags.ratioOccsTaskId::1024            1                       # Ratio of occupied blocks and all blocks, per task id (Ratio)
system.cpu.l1i.tags.tagAccesses              98508215                       # Number of tag accesses (Count)
system.cpu.l1i.tags.dataAccesses             98508215                       # Number of data accesses (Count)
system.cpu.l1i.tags.power_state.pwrStateResidencyTicks::UNDEFINED 1180311011487                       # Cumulative time (in ticks) in various power states (Tick)
system.cpu.mmu.dtb.rdAccesses                 9864864                       # TLB accesses on read requests (Count)
system.cpu.mmu.dtb.wrAccesses                 6363332                       # TLB accesses on write requests (Count)
system.cpu.mmu.dtb.rdMisses                      2009                       # TLB misses on read requests (Count)
system.cpu.mmu.dtb.wrMisses                       722                       # TLB misses on write requests (Count)
system.cpu.mmu.dtb.walker.power_state.pwrStateResidencyTicks::UNDEFINED 1180311011487                       # Cumulative time (in ticks) in various power states (Tick)
system.cpu.mmu.itb.rdAccesses                       0                       # TLB accesses on read requests (Count)
system.cpu.mmu.itb.wrAccesses                49234024                       # TLB accesses on write requests (Count)
system.cpu.mmu.itb.rdMisses                         0                       # TLB misses on read requests (Count)
system.cpu.mmu.itb.wrMisses                       539                       # TLB misses on write requests (Count)
system.cpu.mmu.itb.walker.power_state.pwrStateResidencyTicks::UNDEFINED 1180311011487                       # Cumulative time (in ticks) in various power states (Tick)
system.cpu.power_state.pwrStateResidencyTicks::ON 1180311011487                       # Cumulative time (in ticks) in various power states (Tick)
system.cpu.thread_0.numInsts                        0                       # Number of Instructions committed (Count)
system.cpu.thread_0.numOps                          0                       # Number of Ops committed (Count)
system.cpu.thread_0.numMemRefs                      0                       # Number of Memory References (Count)
system.cpu.workload.numSyscalls                   205                       # Number of system calls (Count)
system.mem_ctrl.avgPriority_writebacks::samples    980525.00                       # Average QoS priority value for accepted requests (Count)
system.mem_ctrl.avgPriority_cpu.inst::samples     40427.00                       # Average QoS priority value for accepted requests (Count)
system.mem_ctrl.avgPriority_cpu.data::samples   1277550.00                       # Average QoS priority value for accepted requests (Count)
system.mem_ctrl.priorityMinLatency       0.000000018750                       # per QoS priority minimum request to response latency (Second)
system.mem_ctrl.priorityMaxLatency       0.023546883814                       # per QoS priority maximum request to response latency (Second)
system.mem_ctrl.numReadWriteTurnArounds         54511                       # Number of turnarounds from READ to WRITE (Count)
system.mem_ctrl.numWriteReadTurnArounds         54511                       # Number of turnarounds from WRITE to READ (Count)
system.mem_ctrl.numStayReadState              4028358                       # Number of times bus staying in READ state (Count)
system.mem_ctrl.numStayWriteState              926709                       # Number of times bus staying in WRITE state (Count)
system.mem_ctrl.readReqs                      1563449                       # Number of read requests accepted (Count)
system.mem_ctrl.writeReqs                     1091551                       # Number of write requests accepted (Count)
system.mem_ctrl.readBursts                    1563449                       # Number of controller read bursts, including those serviced by the write queue (Count)
system.mem_ctrl.writeBursts                   1091551                       # Number of controller write bursts, including those merged in the write queue (Count)
system.mem_ctrl.servicedByWrQ                  245472                       # Number of controller read bursts serviced by the write queue (Count)
system.mem_ctrl.mergedWrBursts                 111026                       # Number of controller write bursts merged with an existing one (Count)
system.mem_ctrl.neitherReadNorWriteReqs             0                       # Number of requests that are neither read nor write (Count)
system.mem_ctrl.avgRdQLen                        1.00                       # Average read queue length when enqueuing ((Count/Tick))
system.mem_ctrl.avgWrQLen                       24.46                       # Average write queue length when enqueuing ((Count/Tick))
system.mem_ctrl.numRdRetry                          0                       # Number of times read queue was full causing retry (Count)
system.mem_ctrl.numWrRetry                          0                       # Number of times write queue was full causing retry (Count)
system.mem_ctrl.readPktSize::0                      0                       # Read request sizes (log2) (Count)
system.mem_ctrl.readPktSize::1                      0                       # Read request sizes (log2) (Count)
system.mem_ctrl.readPktSize::2                      0                       # Read request sizes (log2) (Count)
system.mem_ctrl.readPktSize::3                      0                       # Read request sizes (log2) (Count)
system.mem_ctrl.readPktSize::4                      0                       # Read request sizes (log2) (Count)
system.mem_ctrl.readPktSize::5                      0                       # Read request sizes (log2) (Count)
system.mem_ctrl.readPktSize::6                1563449                       # Read request sizes (log2) (Count)
system.mem_ctrl.writePktSize::0                     0                       # Write request sizes (log2) (Count)
system.mem_ctrl.writePktSize::1                     0                       # Write request sizes (log2) (Count)
system.mem_ctrl.writePktSize::2                     0                       # Write request sizes (log2) (Count)
system.mem_ctrl.writePktSize::3                     0                       # Write request sizes (log2) (Count)
system.mem_ctrl.writePktSize::4                     0                       # Write request sizes (log2) (Count)
system.mem_ctrl.writePktSize::5                     0                       # Write request sizes (log2) (Count)
system.mem_ctrl.writePktSize::6               1091551                       # Write request sizes (log2) (Count)
system.mem_ctrl.rdQLenPdf::0                  1317973                       # What read queue length does an incoming req see (Count)
system.mem_ctrl.rdQLenPdf::1                        4                       # What read queue length does an incoming req see (Count)
system.mem_ctrl.rdQLenPdf::2                        0                       # What read queue length does an incoming req see (Count)
system.mem_ctrl.rdQLenPdf::3                        0                       # What read queue length does an incoming req see (Count)
system.mem_ctrl.rdQLenPdf::4                        0                       # What read queue length does an incoming req see (Count)
system.mem_ctrl.rdQLenPdf::5                        0                       # What read queue length does an incoming req see (Count)
system.mem_ctrl.rdQLenPdf::6                        0                       # What read queue length does an incoming req see (Count)
system.mem_ctrl.rdQLenPdf::7                        0                       # What read queue length does an incoming req see (Count)
system.mem_ctrl.rdQLenPdf::8                        0                       # What read queue length does an incoming req see (Count)
system.mem_ctrl.rdQLenPdf::9                        0                       # What read queue length does an incoming req see (Count)
system.mem_ctrl.rdQLenPdf::10                       0                       # What read queue length does an incoming req see (Count)
system.mem_ctrl.rdQLenPdf::11                       0                       # What read queue length does an incoming req see (Count)
system.mem_ctrl.rdQLenPdf::12                       0                       # What read queue length does an incoming req see (Count)
system.mem_ctrl.rdQLenPdf::13                       0                       # What read queue length does an incoming req see (Count)
system.mem_ctrl.rdQLenPdf::14                       0                       # What read queue length does an incoming req see (Count)
system.mem_ctrl.rdQLenPdf::15                       0                       # What read queue length does an incoming req see (Count)
system.mem_ctrl.rdQLenPdf::16                       0                       # What read queue length does an incoming req see (Count)
system.mem_ctrl.rdQLenPdf::17                       0                       # What read queue length does an incoming req see (Count)
system.mem_ctrl.rdQLenPdf::18                       0                       # What read queue length does an incoming req see (Count)
system.mem_ctrl.rdQLenPdf::19                       0                       # What read queue length does an incoming req see (Count)
system.mem_ctrl.rdQLenPdf::20                       0                       # What read queue length does an incoming req see (Count)
system.mem_ctrl.rdQLenPdf::21                       0                       # What read queue length does an incoming req see (Count)
system.mem_ctrl.rdQLenPdf::22                       0                       # What read queue length does an incoming req see (Count)
system.mem_ctrl.rdQLenPdf::23                       0                       # What read queue length does an incoming req see (Count)
system.mem_ctrl.rdQLenPdf::24                       0                       # What read queue length does an incoming req see (Count)
system.mem_ctrl.rdQLenPdf::25                       0                       # What read queue length does an incoming req see (Count)
system.mem_ctrl.rdQLenPdf::26                       0                       # What read queue length does an incoming req see (Count)
system.mem_ctrl.rdQLenPdf::27                       0                       # What read queue length does an incoming req see (Count)
system.mem_ctrl.rdQLenPdf::28                       0                       # What read queue length does an incoming req see (Count)
system.mem_ctrl.rdQLenPdf::29                       0                       # What read queue length does an incoming req see (Count)
system.mem_ctrl.rdQLenPdf::30                       0                       # What read queue length does an incoming req see (Count)
system.mem_ctrl.rdQLenPdf::31                       0                       # What read queue length does an incoming req see (Count)
system.mem_ctrl.wrQLenPdf::0                        1                       # What write queue length does an incoming req see (Count)
system.mem_ctrl.wrQLenPdf::1                        1                       # What write queue length does an incoming req see (Count)
system.mem_ctrl.wrQLenPdf::2                        1                       # What write queue length does an incoming req see (Count)
system.mem_ctrl.wrQLenPdf::3                        1                       # What write queue length does an incoming req see (Count)
system.mem_ctrl.wrQLenPdf::4                        1                       # What write queue length does an incoming req see (Count)
system.mem_ctrl.wrQLenPdf::5                        1                       # What write queue length does an incoming req see (Count)
system.mem_ctrl.wrQLenPdf::6                        1                       # What write queue length does an incoming req see (Count)
system.mem_ctrl.wrQLenPdf::7                        1                       # What write queue length does an incoming req see (Count)
system.mem_ctrl.wrQLenPdf::8                        1                       # What write queue length does an incoming req see (Count)
system.mem_ctrl.wrQLenPdf::9                        1                       # What write queue length does an incoming req see (Count)
system.mem_ctrl.wrQLenPdf::10                       1                       # What write queue length does an incoming req see (Count)
system.mem_ctrl.wrQLenPdf::11                       1                       # What write queue length does an incoming req see (Count)
system.mem_ctrl.wrQLenPdf::12                       1                       # What write queue length does an incoming req see (Count)
system.mem_ctrl.wrQLenPdf::13                       1                       # What write queue length does an incoming req see (Count)
system.mem_ctrl.wrQLenPdf::14                       1                       # What write queue length does an incoming req see (Count)
system.mem_ctrl.wrQLenPdf::15                   54077                       # What write queue length does an incoming req see (Count)
system.mem_ctrl.wrQLenPdf::16                   54194                       # What write queue length does an incoming req see (Count)
system.mem_ctrl.wrQLenPdf::17                   54535                       # What write queue length does an incoming req see (Count)
system.mem_ctrl.wrQLenPdf::18                   54512                       # What write queue length does an incoming req see (Count)
system.mem_ctrl.wrQLenPdf::19                   54512                       # What write queue length does an incoming req see (Count)
system.mem_ctrl.wrQLenPdf::20                   54518                       # What write queue length does an incoming req see (Count)
system.mem_ctrl.wrQLenPdf::21                   54516                       # What write queue length does an incoming req see (Count)
system.mem_ctrl.wrQLenPdf::22                   54519                       # What write queue length does an incoming req see (Count)
system.mem_ctrl.wrQLenPdf::23                   54513                       # What write queue length does an incoming req see (Count)
system.mem_ctrl.wrQLenPdf::24                   54512                       # What write queue length does an incoming req see (Count)
system.mem_ctrl.wrQLenPdf::25                   54512                       # What write queue length does an incoming req see (Count)
system.mem_ctrl.wrQLenPdf::26                   54512                       # What write queue length does an incoming req see (Count)
system.mem_ctrl.wrQLenPdf::27                   54512                       # What write queue length does an incoming req see (Count)
system.mem_ctrl.wrQLenPdf::28                   54512                       # What write queue length does an incoming req see (Count)
system.mem_ctrl.wrQLenPdf::29                   54512                       # What write queue length does an incoming req see (Count)
system.mem_ctrl.wrQLenPdf::30                   54512                       # What write queue length does an incoming req see (Count)
system.mem_ctrl.wrQLenPdf::31                   54512                       # What write queue length does an incoming req see (Count)
system.mem_ctrl.wrQLenPdf::32                   54511                       # What write queue length does an incoming req see (Count)
system.mem_ctrl.wrQLenPdf::33                       7                       # What write queue length does an incoming req see (Count)
system.mem_ctrl.wrQLenPdf::34                       0                       # What write queue length does an incoming req see (Count)
system.mem_ctrl.wrQLenPdf::35                       0                       # What write queue length does an incoming req see (Count)
system.mem_ctrl.wrQLenPdf::36                       0                       # What write queue length does an incoming req see (Count)
system.mem_ctrl.wrQLenPdf::37                       0                       # What write queue length does an incoming req see (Count)
system.mem_ctrl.wrQLenPdf::38                       0                       # What write queue length does an incoming req see (Count)
system.mem_ctrl.wrQLenPdf::39                       0                       # What write queue length does an incoming req see (Count)
system.mem_ctrl.wrQLenPdf::40                       0                       # What write queue length does an incoming req see (Count)
system.mem_ctrl.wrQLenPdf::41                       0                       # What write queue length does an incoming req see (Count)
system.mem_ctrl.wrQLenPdf::42                       0                       # What write queue length does an incoming req see (Count)
system.mem_ctrl.wrQLenPdf::43                       0                       # What write queue length does an incoming req see (Count)
system.mem_ctrl.wrQLenPdf::44                       0                       # What write queue length does an incoming req see (Count)
system.mem_ctrl.wrQLenPdf::45                       0                       # What write queue length does an incoming req see (Count)
system.mem_ctrl.wrQLenPdf::46                       0                       # What write queue length does an incoming req see (Count)
system.mem_ctrl.wrQLenPdf::47                       0                       # What write queue length does an incoming req see (Count)
system.mem_ctrl.wrQLenPdf::48                       0                       # What write queue length does an incoming req see (Count)
system.mem_ctrl.wrQLenPdf::49                       0                       # What write queue length does an incoming req see (Count)
system.mem_ctrl.wrQLenPdf::50                       0                       # What write queue length does an incoming req see (Count)
system.mem_ctrl.wrQLenPdf::51                       0                       # What write queue length does an incoming req see (Count)
system.mem_ctrl.wrQLenPdf::52                       0                       # What write queue length does an incoming req see (Count)
system.mem_ctrl.wrQLenPdf::53                       0                       # What write queue length does an incoming req see (Count)
system.mem_ctrl.wrQLenPdf::54                       0                       # What write queue length does an incoming req see (Count)
system.mem_ctrl.wrQLenPdf::55                       0                       # What write queue length does an incoming req see (Count)
system.mem_ctrl.wrQLenPdf::56                       0                       # What write queue length does an incoming req see (Count)
system.mem_ctrl.wrQLenPdf::57                       0                       # What write queue length does an incoming req see (Count)
system.mem_ctrl.wrQLenPdf::58                       0                       # What write queue length does an incoming req see (Count)
system.mem_ctrl.wrQLenPdf::59                       0                       # What write queue length does an incoming req see (Count)
system.mem_ctrl.wrQLenPdf::60                       0                       # What write queue length does an incoming req see (Count)
system.mem_ctrl.wrQLenPdf::61                       0                       # What write queue length does an incoming req see (Count)
system.mem_ctrl.wrQLenPdf::62                       0                       # What write queue length does an incoming req see (Count)
system.mem_ctrl.wrQLenPdf::63                       0                       # What write queue length does an incoming req see (Count)
system.mem_ctrl.rdPerTurnAround::samples        54511                       # Reads before turning the bus around for writes (Count)
system.mem_ctrl.rdPerTurnAround::mean       24.176607                       # Reads before turning the bus around for writes (Count)
system.mem_ctrl.rdPerTurnAround::gmean      19.275722                       # Reads before turning the bus around for writes (Count)
system.mem_ctrl.rdPerTurnAround::stdev      46.789904                       # Reads before turning the bus around for writes (Count)
system.mem_ctrl.rdPerTurnAround::0-127          53879     98.84%     98.84% # Reads before turning the bus around for writes (Count)
system.mem_ctrl.rdPerTurnAround::128-255          201      0.37%     99.21% # Reads before turning the bus around for writes (Count)
system.mem_ctrl.rdPerTurnAround::256-383           80      0.15%     99.36% # Reads before turning the bus around for writes (Count)
system.mem_ctrl.rdPerTurnAround::384-511          207      0.38%     99.74% # Reads before turning the bus around for writes (Count)
system.mem_ctrl.rdPerTurnAround::512-639          124      0.23%     99.96% # Reads before turning the bus around for writes (Count)
system.mem_ctrl.rdPerTurnAround::640-767           12      0.02%     99.99% # Reads before turning the bus around for writes (Count)
system.mem_ctrl.rdPerTurnAround::768-895            2      0.00%     99.99% # Reads before turning the bus around for writes (Count)
system.mem_ctrl.rdPerTurnAround::896-1023            4      0.01%    100.00% # Reads before turning the bus around for writes (Count)
system.mem_ctrl.rdPerTurnAround::2176-2303            1      0.00%    100.00% # Reads before turning the bus around for writes (Count)
system.mem_ctrl.rdPerTurnAround::3712-3839            1      0.00%    100.00% # Reads before turning the bus around for writes (Count)
system.mem_ctrl.rdPerTurnAround::total          54511                       # Reads before turning the bus around for writes (Count)
system.mem_ctrl.wrPerTurnAround::samples        54511                       # Writes before turning the bus around for reads (Count)
system.mem_ctrl.wrPerTurnAround::mean       17.987067                       # Writes before turning the bus around for reads (Count)
system.mem_ctrl.wrPerTurnAround::gmean      17.986256                       # Writes before turning the bus around for reads (Count)
system.mem_ctrl.wrPerTurnAround::stdev       0.164880                       # Writes before turning the bus around for reads (Count)
system.mem_ctrl.wrPerTurnAround::16               335      0.61%      0.61% # Writes before turning the bus around for reads (Count)
system.mem_ctrl.wrPerTurnAround::17                93      0.17%      0.79% # Writes before turning the bus around for reads (Count)
system.mem_ctrl.wrPerTurnAround::18             54025     99.11%     99.89% # Writes before turning the bus around for reads (Count)
system.mem_ctrl.wrPerTurnAround::19                58      0.11%    100.00% # Writes before turning the bus around for reads (Count)
system.mem_ctrl.wrPerTurnAround::total          54511                       # Writes before turning the bus around for reads (Count)
system.mem_ctrl.bytesReadWrQ                 15710208                       # Total number of bytes read from write queue (Byte)
system.mem_ctrl.bytesReadSys                100060736                       # Total read bytes from the system interface side (Byte)
system.mem_ctrl.bytesWrittenSys              69859264                       # Total written bytes from the system interface side (Byte)
system.mem_ctrl.avgRdBWSys               84774889.86054595                       # Average system read bandwidth in Byte/s ((Byte/Second))
system.mem_ctrl.avgWrBWSys               59187166.19612715                       # Average system write bandwidth in Byte/s ((Byte/Second))
system.mem_ctrl.totGap                   1180310811492                       # Total gap between requests (Tick)
system.mem_ctrl.avgGap                      444561.51                       # Average gap between requests ((Tick/Count))
system.mem_ctrl.requestorReadBytes::cpu.inst      2587328                       # Per-requestor bytes read from memory (Byte)
system.mem_ctrl.requestorReadBytes::cpu.data     81763200                       # Per-requestor bytes read from memory (Byte)
system.mem_ctrl.requestorWriteBytes::writebacks     62751552                       # Per-requestor bytes write to memory (Byte)
system.mem_ctrl.requestorReadRate::cpu.inst 2192073.084822268691                       # Per-requestor bytes read from memory rate ((Byte/Second))
system.mem_ctrl.requestorReadRate::cpu.data 69272589.346592351794                       # Per-requestor bytes read from memory rate ((Byte/Second))
system.mem_ctrl.requestorWriteRate::writebacks 53165268.636224322021                       # Per-requestor bytes write to memory rate ((Byte/Second))
system.mem_ctrl.requestorReadAccesses::cpu.inst        40427                       # Per-requestor read serviced memory accesses (Count)
system.mem_ctrl.requestorReadAccesses::cpu.data      1523022                       # Per-requestor read serviced memory accesses (Count)
system.mem_ctrl.requestorWriteAccesses::writebacks      1091551                       # Per-requestor write serviced memory accesses (Count)
system.mem_ctrl.requestorReadTotalLat::cpu.inst   1270543726                       # Per-requestor read total memory access latency (Tick)
system.mem_ctrl.requestorReadTotalLat::cpu.data  40770944039                       # Per-requestor read total memory access latency (Tick)
system.mem_ctrl.requestorWriteTotalLat::writebacks 27999289307567                       # Per-requestor write total memory access latency (Tick)
system.mem_ctrl.requestorReadAvgLat::cpu.inst     31428.10                       # Per-requestor read average memory access latency ((Tick/Count))
system.mem_ctrl.requestorReadAvgLat::cpu.data     26769.77                       # Per-requestor read average memory access latency ((Tick/Count))
system.mem_ctrl.requestorWriteAvgLat::writebacks  25650921.77                       # Per-requestor write average memory access latency ((Tick/Count))
system.mem_ctrl.dram.bytesRead::cpu.inst      2587328                       # Number of bytes read from this memory (Byte)
system.mem_ctrl.dram.bytesRead::cpu.data     97473408                       # Number of bytes read from this memory (Byte)
system.mem_ctrl.dram.bytesRead::total       100060736                       # Number of bytes read from this memory (Byte)
system.mem_ctrl.dram.bytesInstRead::cpu.inst      2587328                       # Number of instructions bytes read from this memory (Byte)
system.mem_ctrl.dram.bytesInstRead::total      2587328                       # Number of instructions bytes read from this memory (Byte)
system.mem_ctrl.dram.bytesWritten::writebacks     69859264                       # Number of bytes written to this memory (Byte)
system.mem_ctrl.dram.bytesWritten::total     69859264                       # Number of bytes written to this memory (Byte)
system.mem_ctrl.dram.numReads::cpu.inst         40427                       # Number of read requests responded to by this memory (Count)
system.mem_ctrl.dram.numReads::cpu.data       1523022                       # Number of read requests responded to by this memory (Count)
system.mem_ctrl.dram.numReads::total          1563449                       # Number of read requests responded to by this memory (Count)
system.mem_ctrl.dram.numWrites::writebacks      1091551                       # Number of write requests responded to by this memory (Count)
system.mem_ctrl.dram.numWrites::total         1091551                       # Number of write requests responded to by this memory (Count)
system.mem_ctrl.dram.bwRead::cpu.inst         2192073                       # Total read bandwidth from this memory ((Byte/Second))
system.mem_ctrl.dram.bwRead::cpu.data        82582817                       # Total read bandwidth from this memory ((Byte/Second))
system.mem_ctrl.dram.bwRead::total           84774890                       # Total read bandwidth from this memory ((Byte/Second))
system.mem_ctrl.dram.bwInstRead::cpu.inst      2192073                       # Instruction read bandwidth from this memory ((Byte/Second))
system.mem_ctrl.dram.bwInstRead::total        2192073                       # Instruction read bandwidth from this memory ((Byte/Second))
system.mem_ctrl.dram.bwWrite::writebacks     59187166                       # Write bandwidth from this memory ((Byte/Second))
system.mem_ctrl.dram.bwWrite::total          59187166                       # Write bandwidth from this memory ((Byte/Second))
system.mem_ctrl.dram.bwTotal::writebacks     59187166                       # Total bandwidth to/from this memory ((Byte/Second))
system.mem_ctrl.dram.bwTotal::cpu.inst        2192073                       # Total bandwidth to/from this memory ((Byte/Second))
system.mem_ctrl.dram.bwTotal::cpu.data       82582817                       # Total bandwidth to/from this memory ((Byte/Second))
system.mem_ctrl.dram.bwTotal::total         143962056                       # Total bandwidth to/from this memory ((Byte/Second))
system.mem_ctrl.dram.readBursts               1317977                       # Number of DRAM read bursts (Count)
system.mem_ctrl.dram.writeBursts               980493                       # Number of DRAM write bursts (Count)
system.mem_ctrl.dram.perBankRdBursts::0         36524                       # Per bank write bursts (Count)
system.mem_ctrl.dram.perBankRdBursts::1         28167                       # Per bank write bursts (Count)
system.mem_ctrl.dram.perBankRdBursts::2          5499                       # Per bank write bursts (Count)
system.mem_ctrl.dram.perBankRdBursts::3          9177                       # Per bank write bursts (Count)
system.mem_ctrl.dram.perBankRdBursts::4         86838                       # Per bank write bursts (Count)
system.mem_ctrl.dram.perBankRdBursts::5        113325                       # Per bank write bursts (Count)
system.mem_ctrl.dram.perBankRdBursts::6         61404                       # Per bank write bursts (Count)
system.mem_ctrl.dram.perBankRdBursts::7         62838                       # Per bank write bursts (Count)
system.mem_ctrl.dram.perBankRdBursts::8        128620                       # Per bank write bursts (Count)
system.mem_ctrl.dram.perBankRdBursts::9        189998                       # Per bank write bursts (Count)
system.mem_ctrl.dram.perBankRdBursts::10       208610                       # Per bank write bursts (Count)
system.mem_ctrl.dram.perBankRdBursts::11       267447                       # Per bank write bursts (Count)
system.mem_ctrl.dram.perBankRdBursts::12        28935                       # Per bank write bursts (Count)
system.mem_ctrl.dram.perBankRdBursts::13        32226                       # Per bank write bursts (Count)
system.mem_ctrl.dram.perBankRdBursts::14        27095                       # Per bank write bursts (Count)
system.mem_ctrl.dram.perBankRdBursts::15        31274                       # Per bank write bursts (Count)
system.mem_ctrl.dram.perBankWrBursts::0         13579                       # Per bank write bursts (Count)
system.mem_ctrl.dram.perBankWrBursts::1           986                       # Per bank write bursts (Count)
system.mem_ctrl.dram.perBankWrBursts::2           687                       # Per bank write bursts (Count)
system.mem_ctrl.dram.perBankWrBursts::3           943                       # Per bank write bursts (Count)
system.mem_ctrl.dram.perBankWrBursts::4         99056                       # Per bank write bursts (Count)
system.mem_ctrl.dram.perBankWrBursts::5        118541                       # Per bank write bursts (Count)
system.mem_ctrl.dram.perBankWrBursts::6         24190                       # Per bank write bursts (Count)
system.mem_ctrl.dram.perBankWrBursts::7         24506                       # Per bank write bursts (Count)
system.mem_ctrl.dram.perBankWrBursts::8        100076                       # Per bank write bursts (Count)
system.mem_ctrl.dram.perBankWrBursts::9        170884                       # Per bank write bursts (Count)
system.mem_ctrl.dram.perBankWrBursts::10       173133                       # Per bank write bursts (Count)
system.mem_ctrl.dram.perBankWrBursts::11       247247                       # Per bank write bursts (Count)
system.mem_ctrl.dram.perBankWrBursts::12         3988                       # Per bank write bursts (Count)
system.mem_ctrl.dram.perBankWrBursts::13          920                       # Per bank write bursts (Count)
system.mem_ctrl.dram.perBankWrBursts::14          891                       # Per bank write bursts (Count)
system.mem_ctrl.dram.perBankWrBursts::15          866                       # Per bank write bursts (Count)
system.mem_ctrl.dram.totQLat              17329419015                       # Total ticks spent queuing (Tick)
system.mem_ctrl.dram.totBusLat             6589885000                       # Total ticks spent in databus transfers (Tick)
system.mem_ctrl.dram.totMemAccLat         42041487765                       # Total ticks spent from burst creation until serviced by the DRAM (Tick)
system.mem_ctrl.dram.avgQLat                 13148.50                       # Average queueing delay per DRAM burst ((Tick/Count))
system.mem_ctrl.dram.avgBusLat                5000.00                       # Average bus latency per DRAM burst ((Tick/Count))
system.mem_ctrl.dram.avgMemAccLat            31898.50                       # Average memory access latency per DRAM burst ((Tick/Count))
system.mem_ctrl.dram.readRowHits               759569                       # Number of row buffer hits during reads (Count)
system.mem_ctrl.dram.writeRowHits              894843                       # Number of row buffer hits during writes (Count)
system.mem_ctrl.dram.readRowHitRate             57.63                       # Row buffer hit rate for reads (Ratio)
system.mem_ctrl.dram.writeRowHitRate            91.26                       # Row buffer hit rate for writes (Ratio)
system.mem_ctrl.dram.bytesPerActivate::samples       644057                       # Bytes accessed per row activation (Byte)
system.mem_ctrl.dram.bytesPerActivate::mean   228.398965                       # Bytes accessed per row activation (Byte)
system.mem_ctrl.dram.bytesPerActivate::gmean   158.352577                       # Bytes accessed per row activation (Byte)
system.mem_ctrl.dram.bytesPerActivate::stdev   208.612534                       # Bytes accessed per row activation (Byte)
system.mem_ctrl.dram.bytesPerActivate::0-127       240537     37.35%     37.35% # Bytes accessed per row activation (Byte)
system.mem_ctrl.dram.bytesPerActivate::128-255       166426     25.84%     63.19% # Bytes accessed per row activation (Byte)
[...]
system.mem_ctrl.dram.bwRead::cpu.data        20848428                       # Total read bandwidth from this memory ((Byte/Second))
system.mem_ctrl.dram.bwRead::total           97040354                       # Total read bandwidth from this memory ((Byte/Second))
system.mem_ctrl.dram.bwInstRead::cpu.inst     76191926                       # Instruction read bandwidth from this memory ((Byte/Second))
system.mem_ctrl.dram.bwInstRead::total       76191926                       # Instruction read bandwidth from this memory ((Byte/Second))
system.mem_ctrl.dram.bwWrite::writebacks      6848284                       # Write bandwidth from this memory ((Byte/Second))
system.mem_ctrl.dram.bwWrite::total           6848284                       # Write bandwidth from this memory ((Byte/Second))
system.mem_ctrl.dram.bwTotal::writebacks      6848284                       # Total bandwidth to/from this memory ((Byte/Second))
system.mem_ctrl.dram.bwTotal::cpu.inst       76191926                       # Total bandwidth to/from this memory ((Byte/Second))
system.mem_ctrl.dram.bwTotal::cpu.data       20848428                       # Total bandwidth to/from this memory ((Byte/Second))
system.mem_ctrl.dram.bwTotal::total         103888638                       # Total bandwidth to/from this memory ((Byte/Second))
system.mem_ctrl.dram.readBursts                459489                       # Number of DRAM read bursts (Count)
system.mem_ctrl.dram.writeBursts                15731                       # Number of DRAM write bursts (Count)
system.mem_ctrl.dram.perBankRdBursts::0          4167                       # Per bank write bursts (Count)
system.mem_ctrl.dram.perBankRdBursts::1         66386                       # Per bank write bursts (Count)
system.mem_ctrl.dram.perBankRdBursts::2         84300                       # Per bank write bursts (Count)
system.mem_ctrl.dram.perBankRdBursts::3         10446                       # Per bank write bursts (Count)
system.mem_ctrl.dram.perBankRdBursts::4         17199                       # Per bank write bursts (Count)
system.mem_ctrl.dram.perBankRdBursts::5         37797                       # Per bank write bursts (Count)
system.mem_ctrl.dram.perBankRdBursts::6          1926                       # Per bank write bursts (Count)
system.mem_ctrl.dram.perBankRdBursts::7          1587                       # Per bank write bursts (Count)
system.mem_ctrl.dram.perBankRdBursts::8          1986                       # Per bank write bursts (Count)
system.mem_ctrl.dram.perBankRdBursts::9          3110                       # Per bank write bursts (Count)
system.mem_ctrl.dram.perBankRdBursts::10         2422                       # Per bank write bursts (Count)
system.mem_ctrl.dram.perBankRdBursts::11         2661                       # Per bank write bursts (Count)
system.mem_ctrl.dram.perBankRdBursts::12        10625                       # Per bank write bursts (Count)
system.mem_ctrl.dram.perBankRdBursts::13         5285                       # Per bank write bursts (Count)
system.mem_ctrl.dram.perBankRdBursts::14        27900                       # Per bank write bursts (Count)
system.mem_ctrl.dram.perBankRdBursts::15       181692                       # Per bank write bursts (Count)
system.mem_ctrl.dram.perBankWrBursts::0           931                       # Per bank write bursts (Count)
system.mem_ctrl.dram.perBankWrBursts::1           630                       # Per bank write bursts (Count)
system.mem_ctrl.dram.perBankWrBursts::2           553                       # Per bank write bursts (Count)
system.mem_ctrl.dram.perBankWrBursts::3           776                       # Per bank write bursts (Count)
system.mem_ctrl.dram.perBankWrBursts::4          2228                       # Per bank write bursts (Count)
system.mem_ctrl.dram.perBankWrBursts::5          3613                       # Per bank write bursts (Count)
system.mem_ctrl.dram.perBankWrBursts::6           418                       # Per bank write bursts (Count)
system.mem_ctrl.dram.perBankWrBursts::7           407                       # Per bank write bursts (Count)
system.mem_ctrl.dram.perBankWrBursts::8           467                       # Per bank write bursts (Count)
system.mem_ctrl.dram.perBankWrBursts::9          1337                       # Per bank write bursts (Count)
system.mem_ctrl.dram.perBankWrBursts::10          412                       # Per bank write bursts (Count)
system.mem_ctrl.dram.perBankWrBursts::11          521                       # Per bank write bursts (Count)
system.mem_ctrl.dram.perBankWrBursts::12          642                       # Per bank write bursts (Count)
system.mem_ctrl.dram.perBankWrBursts::13          921                       # Per bank write bursts (Count)
system.mem_ctrl.dram.perBankWrBursts::14          928                       # Per bank write bursts (Count)
system.mem_ctrl.dram.perBankWrBursts::15          947                       # Per bank write bursts (Count)
system.mem_ctrl.dram.totQLat               5110705995                       # Total ticks spent queuing (Tick)
system.mem_ctrl.dram.totBusLat             2297445000                       # Total ticks spent in databus transfers (Tick)
system.mem_ctrl.dram.totMemAccLat         13726124745                       # Total ticks spent from burst creation until serviced by the DRAM (Tick)
system.mem_ctrl.dram.avgQLat                 11122.59                       # Average queueing delay per DRAM burst ((Tick/Count))
system.mem_ctrl.dram.avgBusLat                5000.00                       # Average bus latency per DRAM burst ((Tick/Count))
system.mem_ctrl.dram.avgMemAccLat            29872.59                       # Average memory access latency per DRAM burst ((Tick/Count))
system.mem_ctrl.dram.readRowHits               275062                       # Number of row buffer hits during reads (Count)
system.mem_ctrl.dram.writeRowHits               13897                       # Number of row buffer hits during writes (Count)
system.mem_ctrl.dram.readRowHitRate             59.86                       # Row buffer hit rate for reads (Ratio)
system.mem_ctrl.dram.writeRowHitRate            88.34                       # Row buffer hit rate for writes (Ratio)
system.mem_ctrl.dram.bytesPerActivate::samples       186259                       # Bytes accessed per row activation (Byte)
system.mem_ctrl.dram.bytesPerActivate::mean   163.288496                       # Bytes accessed per row activation (Byte)
system.mem_ctrl.dram.bytesPerActivate::gmean   122.271254                       # Bytes accessed per row activation (Byte)
system.mem_ctrl.dram.bytesPerActivate::stdev   141.957135                       # Bytes accessed per row activation (Byte)
system.mem_ctrl.dram.bytesPerActivate::0-127        91448     49.10%     49.10% # Bytes accessed per row activation (Byte)
system.mem_ctrl.dram.bytesPerActivate::128-255        49899     26.79%     75.89% # Bytes accessed per row activation (Byte)
system.mem_ctrl.dram.bytesPerActivate::256-383        24812     13.32%     89.21% # Bytes accessed per row activation (Byte)
system.mem_ctrl.dram.bytesPerActivate::384-511        11256      6.04%     95.25% # Bytes accessed per row activation (Byte)
system.mem_ctrl.dram.bytesPerActivate::512-639         6723      3.61%     98.86% # Bytes accessed per row activation (Byte)
system.mem_ctrl.dram.bytesPerActivate::640-767         1353      0.73%     99.59% # Bytes accessed per row activation (Byte)
system.mem_ctrl.dram.bytesPerActivate::768-895          143      0.08%     99.66% # Bytes accessed per row activation (Byte)
system.mem_ctrl.dram.bytesPerActivate::896-1023          110      0.06%     99.72% # Bytes accessed per row activation (Byte)
system.mem_ctrl.dram.bytesPerActivate::1024-1151          515      0.28%    100.00% # Bytes accessed per row activation (Byte)
system.mem_ctrl.dram.bytesPerActivate::total       186259                       # Bytes accessed per row activation (Byte)
system.mem_ctrl.dram.dramBytesRead           29407296                       # Total bytes read (Byte)
system.mem_ctrl.dram.dramBytesWritten         1006784                       # Total bytes written (Byte)
system.mem_ctrl.dram.avgRdBW                92.133025                       # Average DRAM read bandwidth in MiBytes/s ((Byte/Second))
system.mem_ctrl.dram.avgWrBW                 3.154253                       # Average DRAM write bandwidth in MiBytes/s ((Byte/Second))
system.mem_ctrl.dram.peakBW                  12800.00                       # Theoretical peak bandwidth in MiByte/s ((Byte/Second))
system.mem_ctrl.dram.busUtil                     0.74                       # Data bus utilization in percentage (Ratio)
system.mem_ctrl.dram.busUtilRead                 0.72                       # Data bus utilization in percentage for reads (Ratio)
system.mem_ctrl.dram.busUtilWrite                0.02                       # Data bus utilization in percentage for writes (Ratio)
system.mem_ctrl.dram.pageHitRate                60.81                       # Row buffer hit rate, read and write combined (Ratio)
system.mem_ctrl.dram.power_state.pwrStateResidencyTicks::UNDEFINED 319183006892                       # Cumulative time (in ticks) in various power states (Tick)
system.mem_ctrl.dram.rank0.actEnergy        804178200                       # Energy for activate commands per rank (pJ) (Joule)
system.mem_ctrl.dram.rank0.preEnergy        427427055                       # Energy for precharge commands per rank (pJ) (Joule)
system.mem_ctrl.dram.rank0.readEnergy      1597989120                       # Energy for read commands per rank (pJ) (Joule)
system.mem_ctrl.dram.rank0.writeEnergy       49882320                       # Energy for write commands per rank (pJ) (Joule)
system.mem_ctrl.dram.rank0.refreshEnergy 25195937520.000004                       # Energy for refresh commands per rank (pJ) (Joule)
system.mem_ctrl.dram.rank0.actBackEnergy 111900843330                       # Energy for active background per rank (pJ) (Joule)
system.mem_ctrl.dram.rank0.preBackEnergy  28333900800                       # Energy for precharge background per rank (pJ) (Joule)
system.mem_ctrl.dram.rank0.actPowerDownEnergy            0                       # Energy for active power-down per rank (pJ) (Joule)
system.mem_ctrl.dram.rank0.prePowerDownEnergy            0                       # Energy for precharge power-down per rank (pJ) (Joule)
system.mem_ctrl.dram.rank0.selfRefreshEnergy            0                       # Energy for self refresh per rank (pJ) (Joule)
system.mem_ctrl.dram.rank0.totalEnergy   168310158345                       # Total energy per rank (pJ) (Joule)
system.mem_ctrl.dram.rank0.averagePower    527.315536                       # Core power per rank (mW) (Watt)
system.mem_ctrl.dram.rank0.totalIdleTime            0                       # Total Idle time Per DRAM Rank (Tick)
system.mem_ctrl.dram.rank0.pwrStateTime::IDLE  72657254269                       # Time in different power states (Tick)
system.mem_ctrl.dram.rank0.pwrStateTime::REF  10658414685                       # Time in different power states (Tick)
system.mem_ctrl.dram.rank0.pwrStateTime::SREF            0                       # Time in different power states (Tick)
system.mem_ctrl.dram.rank0.pwrStateTime::PRE_PDN            0                       # Time in different power states (Tick)
system.mem_ctrl.dram.rank0.pwrStateTime::ACT 235867337938                       # Time in different power states (Tick)
system.mem_ctrl.dram.rank0.pwrStateTime::ACT_PDN            0                       # Time in different power states (Tick)
system.mem_ctrl.dram.rank1.actEnergy        525725340                       # Energy for activate commands per rank (pJ) (Joule)
system.mem_ctrl.dram.rank1.preEnergy        279425850                       # Energy for precharge commands per rank (pJ) (Joule)
system.mem_ctrl.dram.rank1.readEnergy      1682762340                       # Energy for read commands per rank (pJ) (Joule)
system.mem_ctrl.dram.rank1.writeEnergy       32233500                       # Energy for write commands per rank (pJ) (Joule)
system.mem_ctrl.dram.rank1.refreshEnergy 25195937520.000004                       # Energy for refresh commands per rank (pJ) (Joule)
system.mem_ctrl.dram.rank1.actBackEnergy 111658223970                       # Energy for active background per rank (pJ) (Joule)
system.mem_ctrl.dram.rank1.preBackEnergy  28538211840                       # Energy for precharge background per rank (pJ) (Joule)
system.mem_ctrl.dram.rank1.actPowerDownEnergy            0                       # Energy for active power-down per rank (pJ) (Joule)
system.mem_ctrl.dram.rank1.prePowerDownEnergy            0                       # Energy for precharge power-down per rank (pJ) (Joule)
system.mem_ctrl.dram.rank1.selfRefreshEnergy            0                       # Energy for self refresh per rank (pJ) (Joule)
system.mem_ctrl.dram.rank1.totalEnergy   167912520360                       # Total energy per rank (pJ) (Joule)
system.mem_ctrl.dram.rank1.averagePower    526.069737                       # Core power per rank (mW) (Watt)
system.mem_ctrl.dram.rank1.totalIdleTime            0                       # Total Idle time Per DRAM Rank (Tick)
system.mem_ctrl.dram.rank1.pwrStateTime::IDLE  73122953325                       # Time in different power states (Tick)
system.mem_ctrl.dram.rank1.pwrStateTime::REF  10658414685                       # Time in different power states (Tick)
system.mem_ctrl.dram.rank1.pwrStateTime::SREF            0                       # Time in different power states (Tick)
system.mem_ctrl.dram.rank1.pwrStateTime::PRE_PDN            0                       # Time in different power states (Tick)
system.mem_ctrl.dram.rank1.pwrStateTime::ACT 235401638882                       # Time in different power states (Tick)
system.mem_ctrl.dram.rank1.pwrStateTime::ACT_PDN            0                       # Time in different power states (Tick)
system.mem_ctrl.power_state.pwrStateResidencyTicks::UNDEFINED 319183006892                       # Cumulative time (in ticks) in various power states (Tick)
system.membus.transDist::ReadResp              459440                       # Transaction distribution (Count)
system.membus.transDist::WritebackDirty         34154                       # Transaction distribution (Count)
system.membus.transDist::CleanEvict            449809                       # Transaction distribution (Count)
system.membus.transDist::ReadExReq              24523                       # Transaction distribution (Count)
system.membus.transDist::ReadExResp             24523                       # Transaction distribution (Count)
system.membus.transDist::ReadSharedReq         459440                       # Transaction distribution (Count)
system.membus.pktCount_system.cpu.l1d.mem_side_port::system.mem_ctrl.port       311928                       # Packet count per connected requestor and responder (Count)
system.membus.pktCount_system.cpu.l1d.mem_side_port::total       311928                       # Packet count per connected requestor and responder (Count)
system.membus.pktCount_system.cpu.l1i.mem_side_port::system.mem_ctrl.port      1139961                       # Packet count per connected requestor and responder (Count)
system.membus.pktCount_system.cpu.l1i.mem_side_port::total      1139961                       # Packet count per connected requestor and responder (Count)
system.membus.pktCount::total                 1451889                       # Packet count per connected requestor and responder (Count)
system.membus.pktSize_system.cpu.l1d.mem_side_port::system.mem_ctrl.port      8840320                       # Cumulative packet size per connected requestor and responder (Byte)
system.membus.pktSize_system.cpu.l1d.mem_side_port::total      8840320                       # Cumulative packet size per connected requestor and responder (Byte)
system.membus.pktSize_system.cpu.l1i.mem_side_port::system.mem_ctrl.port     24319168                       # Cumulative packet size per connected requestor and responder (Byte)
system.membus.pktSize_system.cpu.l1i.mem_side_port::total     24319168                       # Cumulative packet size per connected requestor and responder (Byte)
system.membus.pktSize::total                 33159488                       # Cumulative packet size per connected requestor and responder (Byte)
system.membus.snoops                                0                       # Total snoops (Count)
system.membus.snoopTraffic                          0                       # Total snoop traffic (Byte)
system.membus.snoopFanout::samples             483963                       # Request fanout histogram (Count)
system.membus.snoopFanout::mean                     0                       # Request fanout histogram (Count)
system.membus.snoopFanout::stdev                    0                       # Request fanout histogram (Count)
system.membus.snoopFanout::underflows               0      0.00%      0.00% # Request fanout histogram (Count)
system.membus.snoopFanout::0                   483963    100.00%    100.00% # Request fanout histogram (Count)
system.membus.snoopFanout::1                        0      0.00%    100.00% # Request fanout histogram (Count)
system.membus.snoopFanout::2                        0      0.00%    100.00% # Request fanout histogram (Count)
system.membus.snoopFanout::overflows                0      0.00%    100.00% # Request fanout histogram (Count)
system.membus.snoopFanout::min_value                0                       # Request fanout histogram (Count)
system.membus.snoopFanout::max_value                0                       # Request fanout histogram (Count)
system.membus.snoopFanout::total               483963                       # Request fanout histogram (Count)
system.membus.power_state.pwrStateResidencyTicks::UNDEFINED 319183006892                       # Cumulative time (in ticks) in various power states (Tick)
system.membus.reqLayer2.occupancy         14726858486                       # Layer occupancy (ticks) (Tick)
system.membus.reqLayer2.utilization               0.0                       # Layer utilization (Ratio)
system.membus.respLayer2.occupancy         7101508794                       # Layer occupancy (ticks) (Tick)
system.membus.respLayer2.utilization              0.0                       # Layer utilization (Ratio)
system.membus.respLayer3.occupancy        25828044171                       # Layer occupancy (ticks) (Tick)
system.membus.respLayer3.utilization              0.1                       # Layer utilization (Ratio)
system.membus.snoop_filter.totRequests         967926                       # Total number of requests made to the snoop filter. (Count)
system.membus.snoop_filter.hitSingleRequests       483963                       # Number of requests hitting in the snoop filter with a single holder of the requested data. (Count)
system.membus.snoop_filter.hitMultiRequests            0                       # Number of requests hitting in the snoop filter with multiple (>1) holders of the requested data. (Count)
system.membus.snoop_filter.totSnoops                0                       # Total number of snoops made to the snoop filter. (Count)
system.membus.snoop_filter.hitSingleSnoops            0                       # Number of snoops hitting in the snoop filter with a single holder of the requested data. (Count)
system.membus.snoop_filter.hitMultiSnoops            0                       # Number of snoops hitting in the snoop filter with multiple (>1) holders of the requested data. (Count)
system.workload.inst.arm                            0                       # number of arm instructions executed (Count)
system.workload.inst.quiesce                        0                       # number of quiesce instructions executed (Count)

---------- End Simulation Statistics   ----------
