
---------- Begin Simulation Statistics ----------
simSeconds                                  10.236692                       # Number of seconds simulated (Second)
simTicks                                 10236691676310                       # Number of ticks simulated (Tick)
finalTick                                10236691676310                       # Number of ticks from beginning of simulation (restored from checkpoints and never reset) (Tick)
simFreq                                  1000000000000                       # The number of ticks per simulated second ((Tick/Second))
hostSeconds                                    571.03                       # Real time elapsed on the host (Second)
hostTickRate                              17926661513                       # The number of ticks simulated per host second (ticks/s) ((Tick/Second))
hostMemory                                    8679620                       # Number of bytes of host memory used (Byte)
simInsts                                    339320560                       # Number of instructions simulated (Count)
simOps                                      647914342                       # Number of ops (including micro ops) simulated (Count)
hostInstRate                                   594224                       # Simulator instruction rate (inst/s) ((Count/Second))
hostOpRate                                    1134638                       # Simulator op (including micro ops) rate (op/s) ((Count/Second))
system.clk_domain.clock                         13333                       # Clock period in ticks (Tick)
system.clk_domain.voltage_domain.voltage            1                       # Voltage in Volts (Volt)
system.cpu.numCycles                        767771070                       # Number of cpu cycles simulated (Cycle)
system.cpu.cpi                               2.262627                       # CPI: cycles per instruction (core level) ((Cycle/Count))
system.cpu.ipc                               0.441964                       # IPC: instructions per cycle (core level) ((Count/Cycle))
system.cpu.numWorkItemsStarted                      0                       # Number of work items this cpu started (Count)
system.cpu.numWorkItemsCompleted                    0                       # Number of work items this cpu completed (Count)
system.cpu.commitStats0.numInsts            339327343                       # Number of instructions committed (thread level) (Count)
system.cpu.commitStats0.numOps              647921307                       # Number of ops (including micro ops) committed (thread level) (Count)
system.cpu.commitStats0.numInstsNotNOP              0                       # Number of instructions committed excluding NOPs or prefetches (Count)
system.cpu.commitStats0.numOpsNotNOP                0                       # Number of Ops (including micro ops) Simulated (Count)
system.cpu.commitStats0.cpi                  2.262627                       # CPI: cycles per instruction (thread level) ((Cycle/Count))
system.cpu.commitStats0.ipc                  0.441964                       # IPC: instructions per cycle (thread level) ((Count/Cycle))
system.cpu.commitStats0.numMemRefs                  0                       # Number of memory references committed (Count)
system.cpu.commitStats0.numFpInsts          130308711                       # Number of float instructions (Count)
system.cpu.commitStats0.numIntInsts         551447888                       # Number of integer instructions (Count)
system.cpu.commitStats0.numLoadInsts        105924912                       # Number of load instructions (Count)
system.cpu.commitStats0.numStoreInsts        34199714                       # Number of store instructions (Count)
system.cpu.commitStats0.numVecInsts                 0                       # Number of vector instructions (Count)
system.cpu.commitStats0.committedInstType::No_OpClass      2639026      0.41%      0.41% # Class of committed instruction. (Count)
system.cpu.commitStats0.committedInstType::IntAlu    427071262     65.91%     66.32% # Class of committed instruction. (Count)
system.cpu.commitStats0.committedInstType::IntMult       241214      0.04%     66.36% # Class of committed instruction. (Count)
system.cpu.commitStats0.committedInstType::IntDiv      1994122      0.31%     66.67% # Class of committed instruction. (Count)
system.cpu.commitStats0.committedInstType::FloatAdd     28568572      4.41%     71.08% # Class of committed instruction. (Count)
system.cpu.commitStats0.committedInstType::FloatCmp            0      0.00%     71.08% # Class of committed instruction. (Count)
system.cpu.commitStats0.committedInstType::FloatCvt         1632      0.00%     71.08% # Class of committed instruction. (Count)
system.cpu.commitStats0.committedInstType::FloatMult            0      0.00%     71.08% # Class of committed instruction. (Count)
system.cpu.commitStats0.committedInstType::FloatMultAcc            0      0.00%     71.08% # Class of committed instruction. (Count)
system.cpu.commitStats0.committedInstType::FloatDiv            0      0.00%     71.08% # Class of committed instruction. (Count)
system.cpu.commitStats0.committedInstType::FloatMisc            0      0.00%     71.08% # Class of committed instruction. (Count)
system.cpu.commitStats0.committedInstType::FloatSqrt            0      0.00%     71.08% # Class of committed instruction. (Count)
system.cpu.commitStats0.committedInstType::SimdAdd         6810      0.00%     71.08% # Class of committed instruction. (Count)
system.cpu.commitStats0.committedInstType::SimdAddAcc            0      0.00%     71.08% # Class of committed instruction. (Count)
system.cpu.commitStats0.committedInstType::SimdAlu      2789764      0.43%     71.51% # Class of committed instruction. (Count)
system.cpu.commitStats0.committedInstType::SimdCmp           18      0.00%     71.51% # Class of committed instruction. (Count)
system.cpu.commitStats0.committedInstType::SimdCvt       112606      0.02%     71.52% # Class of committed instruction. (Count)
system.cpu.commitStats0.committedInstType::SimdMisc       321675      0.05%     71.57% # Class of committed instruction. (Count)
system.cpu.commitStats0.committedInstType::SimdMult            0      0.00%     71.57% # Class of committed instruction. (Count)
system.cpu.commitStats0.committedInstType::SimdMultAcc            0      0.00%     71.57% # Class of committed instruction. (Count)
system.cpu.commitStats0.committedInstType::SimdMatMultAcc            0      0.00%     71.57% # Class of committed instruction. (Count)
system.cpu.commitStats0.committedInstType::SimdShift         2207      0.00%     71.57% # Class of committed instruction. (Count)
system.cpu.commitStats0.committedInstType::SimdShiftAcc            0      0.00%     71.57% # Class of committed instruction. (Count)
system.cpu.commitStats0.committedInstType::SimdDiv            0      0.00%     71.57% # Class of committed instruction. (Count)
system.cpu.commitStats0.committedInstType::SimdSqrt            0      0.00%     71.57% # Class of committed instruction. (Count)
system.cpu.commitStats0.committedInstType::SimdFloatAdd     21281781      3.28%     74.86% # Class of committed instruction. (Count)
system.cpu.commitStats0.committedInstType::SimdFloatAlu            0      0.00%     74.86% # Class of committed instruction. (Count)
system.cpu.commitStats0.committedInstType::SimdFloatCmp       393195      0.06%     74.92% # Class of committed instruction. (Count)
system.cpu.commitStats0.committedInstType::SimdFloatCvt     11137592      1.72%     76.64% # Class of committed instruction. (Count)
system.cpu.commitStats0.committedInstType::SimdFloatDiv        50187      0.01%     76.65% # Class of committed instruction. (Count)
system.cpu.commitStats0.committedInstType::SimdFloatMisc            0      0.00%     76.65% # Class of committed instruction. (Count)
system.cpu.commitStats0.committedInstType::SimdFloatMult     10249707      1.58%     78.23% # Class of committed instruction. (Count)
system.cpu.commitStats0.committedInstType::SimdFloatMultAcc            0      0.00%     78.23% # Class of committed instruction. (Count)
system.cpu.commitStats0.committedInstType::SimdFloatMatMultAcc            0      0.00%     78.23% # Class of committed instruction. (Count)
system.cpu.commitStats0.committedInstType::SimdFloatSqrt       935311      0.14%     78.37% # Class of committed instruction. (Count)
system.cpu.commitStats0.committedInstType::SimdReduceAdd            0      0.00%     78.37% # Class of committed instruction. (Count)
system.cpu.commitStats0.committedInstType::SimdReduceAlu            0      0.00%     78.37% # Class of committed instruction. (Count)
system.cpu.commitStats0.committedInstType::SimdReduceCmp            0      0.00%     78.37% # Class of committed instruction. (Count)
system.cpu.commitStats0.committedInstType::SimdFloatReduceAdd            0      0.00%     78.37% # Class of committed instruction. (Count)
system.cpu.commitStats0.committedInstType::SimdFloatReduceCmp            0      0.00%     78.37% # Class of committed instruction. (Count)
system.cpu.commitStats0.committedInstType::SimdAes            0      0.00%     78.37% # Class of committed instruction. (Count)
system.cpu.commitStats0.committedInstType::SimdAesMix            0      0.00%     78.37% # Class of committed instruction. (Count)
system.cpu.commitStats0.committedInstType::SimdSha1Hash            0      0.00%     78.37% # Class of committed instruction. (Count)
system.cpu.commitStats0.committedInstType::SimdSha1Hash2            0      0.00%     78.37% # Class of committed instruction. (Count)
system.cpu.commitStats0.committedInstType::SimdSha256Hash            0      0.00%     78.37% # Class of committed instruction. (Count)
system.cpu.commitStats0.committedInstType::SimdSha256Hash2            0      0.00%     78.37% # Class of committed instruction. (Count)
system.cpu.commitStats0.committedInstType::SimdShaSigma2            0      0.00%     78.37% # Class of committed instruction. (Count)
system.cpu.commitStats0.committedInstType::SimdShaSigma3            0      0.00%     78.37% # Class of committed instruction. (Count)
system.cpu.commitStats0.committedInstType::SimdPredAlu            0      0.00%     78.37% # Class of committed instruction. (Count)
system.cpu.commitStats0.committedInstType::Matrix            0      0.00%     78.37% # Class of committed instruction. (Count)
system.cpu.commitStats0.committedInstType::MatrixMov            0      0.00%     78.37% # Class of committed instruction. (Count)
system.cpu.commitStats0.committedInstType::MatrixOP            0      0.00%     78.37% # Class of committed instruction. (Count)
system.cpu.commitStats0.committedInstType::MemRead     68736389     10.61%     88.98% # Class of committed instruction. (Count)
system.cpu.commitStats0.committedInstType::MemWrite     28302742      4.37%     93.35% # Class of committed instruction. (Count)
system.cpu.commitStats0.committedInstType::FloatMemRead     37188523      5.74%     99.09% # Class of committed instruction. (Count)
system.cpu.commitStats0.committedInstType::FloatMemWrite      5896972      0.91%    100.00% # Class of committed instruction. (Count)
system.cpu.commitStats0.committedInstType::IprAccess            0      0.00%    100.00% # Class of committed instruction. (Count)
system.cpu.commitStats0.committedInstType::InstPrefetch            0      0.00%    100.00% # Class of committed instruction. (Count)
system.cpu.commitStats0.committedInstType::SimdUnitStrideLoad            0      0.00%    100.00% # Class of committed instruction. (Count)
system.cpu.commitStats0.committedInstType::SimdUnitStrideStore            0      0.00%    100.00% # Class of committed instruction. (Count)
system.cpu.commitStats0.committedInstType::SimdUnitStrideMaskLoad            0      0.00%    100.00% # Class of committed instruction. (Count)
system.cpu.commitStats0.committedInstType::SimdUnitStrideMaskStore            0      0.00%    100.00% # Class of committed instruction. (Count)
system.cpu.commitStats0.committedInstType::SimdStridedLoad            0      0.00%    100.00% # Class of committed instruction. (Count)
system.cpu.commitStats0.committedInstType::SimdStridedStore            0      0.00%    100.00% # Class of committed instruction. (Count)
system.cpu.commitStats0.committedInstType::SimdIndexedLoad            0      0.00%    100.00% # Class of committed instruction. (Count)
system.cpu.commitStats0.committedInstType::SimdIndexedStore            0      0.00%    100.00% # Class of committed instruction. (Count)
system.cpu.commitStats0.committedInstType::SimdWholeRegisterLoad            0      0.00%    100.00% # Class of committed instruction. (Count)
system.cpu.commitStats0.committedInstType::SimdWholeRegisterStore            0      0.00%    100.00% # Class of committed instruction. (Count)
system.cpu.commitStats0.committedInstType::SimdUnitStrideFaultOnlyFirstLoad            0      0.00%    100.00% # Class of committed instruction. (Count)
system.cpu.commitStats0.committedInstType::SimdUnitStrideSegmentedLoad            0      0.00%    100.00% # Class of committed instruction. (Count)
system.cpu.commitStats0.committedInstType::SimdUnitStrideSegmentedStore            0      0.00%    100.00% # Class of committed instruction. (Count)
system.cpu.commitStats0.committedInstType::SimdExt            0      0.00%    100.00% # Class of committed instruction. (Count)
system.cpu.commitStats0.committedInstType::SimdFloatExt            0      0.00%    100.00% # Class of committed instruction. (Count)
system.cpu.commitStats0.committedInstType::SimdConfig            0      0.00%    100.00% # Class of committed instruction. (Count)
system.cpu.commitStats0.committedInstType::total    647921307                       # Class of committed instruction. (Count)
system.cpu.commitStats0.committedControl::IsControl     72863740                       # Class of control type instructions committed (Count)
system.cpu.commitStats0.committedControl::IsDirectControl     70980811                       # Class of control type instructions committed (Count)
system.cpu.commitStats0.committedControl::IsIndirectControl      1882576                       # Class of control type instructions committed (Count)
system.cpu.commitStats0.committedControl::IsCondControl     61738543                       # Class of control type instructions committed (Count)
system.cpu.commitStats0.committedControl::IsUncondControl     11124844                       # Class of control type instructions committed (Count)
system.cpu.commitStats0.committedControl::IsCall      1587935                       # Class of control type instructions committed (Count)
system.cpu.commitStats0.committedControl::IsReturn      1587930                       # Class of control type instructions committed (Count)
system.cpu.exec_context.thread_0.numMatAluAccesses            0                       # Number of matrix alu accesses (Count)
system.cpu.exec_context.thread_0.numCallsReturns      3175865                       # Number of times a function call or return occured (Count)
system.cpu.exec_context.thread_0.numMatInsts            0                       # Number of matrix instructions (Count)
system.cpu.exec_context.thread_0.numIdleCycles            0                       # Number of idle cycles (Cycle)
system.cpu.exec_context.thread_0.numBusyCycles    767771070                       # Number of busy cycles (Cycle)
system.cpu.exec_context.thread_0.notIdleFraction            1                       # Percentage of non-idle cycles (Ratio)
system.cpu.exec_context.thread_0.idleFraction            0                       # Percentage of idle cycles (Ratio)
system.cpu.executeStats0.numInsts                   0                       # Number of executed instructions (Count)
system.cpu.executeStats0.numNop                     0                       # Number of nop insts executed (Count)
system.cpu.executeStats0.numBranches                0                       # Number of branches executed (Count)
system.cpu.executeStats0.numLoadInsts               0                       # Number of load instructions executed (Count)
system.cpu.executeStats0.numStoreInsts      140124626                       # Number of stores executed (Count)
system.cpu.executeStats0.instRate                   0                       # Inst execution rate ((Count/Cycle))
system.cpu.executeStats0.numFpAluAccesses    130308711                       # Number of float alu accesses (Count)
system.cpu.executeStats0.numFpRegReads      155035761                       # Number of times the floating registers were read (Count)
system.cpu.executeStats0.numFpRegWrites     113269633                       # Number of times the floating registers were written (Count)
system.cpu.executeStats0.numIntAluAccesses    551447888                       # Number of integer alu accesses (Count)
system.cpu.executeStats0.numIntRegReads     644895702                       # Number of times the integer registers were read (Count)
system.cpu.executeStats0.numIntRegWrites    371610641                       # Number of times the integer registers were written (Count)
system.cpu.executeStats0.numMemRefs         140124626                       # Number of memory refs (Count)
system.cpu.executeStats0.numMiscRegReads    274582828                       # Number of times the Misc registers were read (Count)
system.cpu.executeStats0.numMiscRegWrites          918                       # Number of times the Misc registers were written (Count)
system.cpu.executeStats0.numVecAluAccesses            0                       # Number of vector alu accesses (Count)
system.cpu.executeStats0.numDiscardedOps            0                       # Number of ops (including micro ops) which were discarded before commit (Count)
system.cpu.fetchStats0.numInsts             339327343                       # Number of instructions fetched (thread level) (Count)
system.cpu.fetchStats0.numOps               647921307                       # Number of ops (including micro ops) fetched (thread level) (Count)
system.cpu.fetchStats0.fetchRate             0.441964                       # Number of inst fetches per cycle ((Count/Cycle))
system.cpu.fetchStats0.numBranches           72863740                       # Number of branches fetched (Count)
system.cpu.fetchStats0.branchRate            0.094903                       # Number of branch fetches per cycle (Ratio)
system.cpu.fetchStats0.numFetchSuspends             0                       # Number of times Execute suspended instruction fetching (Count)
system.cpu.interrupts.clk_domain.clock         213328                       # Clock period in ticks (Tick)
system.cpu.l1d.demandHits::cpu.data         130929003                       # number of demand (read+write) hits (Count)
system.cpu.l1d.demandHits::total            130929003                       # number of demand (read+write) hits (Count)
system.cpu.l1d.overallHits::cpu.data        130929003                       # number of overall hits (Count)
system.cpu.l1d.overallHits::total           130929003                       # number of overall hits (Count)
system.cpu.l1d.demandMisses::cpu.data         9053681                       # number of demand (read+write) misses (Count)
system.cpu.l1d.demandMisses::total            9053681                       # number of demand (read+write) misses (Count)
system.cpu.l1d.overallMisses::cpu.data        9053681                       # number of overall misses (Count)
system.cpu.l1d.overallMisses::total           9053681                       # number of overall misses (Count)
system.cpu.l1d.demandMissLatency::cpu.data 1886343866891                       # number of demand (read+write) miss ticks (Tick)
system.cpu.l1d.demandMissLatency::total  1886343866891                       # number of demand (read+write) miss ticks (Tick)
system.cpu.l1d.overallMissLatency::cpu.data 1886343866891                       # number of overall miss ticks (Tick)
system.cpu.l1d.overallMissLatency::total 1886343866891                       # number of overall miss ticks (Tick)
system.cpu.l1d.demandAccesses::cpu.data     139982684                       # number of demand (read+write) accesses (Count)
system.cpu.l1d.demandAccesses::total        139982684                       # number of demand (read+write) accesses (Count)
system.cpu.l1d.overallAccesses::cpu.data    139982684                       # number of overall (read+write) accesses (Count)
system.cpu.l1d.overallAccesses::total       139982684                       # number of overall (read+write) accesses (Count)
system.cpu.l1d.demandMissRate::cpu.data      0.064677                       # miss rate for demand accesses (Ratio)
system.cpu.l1d.demandMissRate::total         0.064677                       # miss rate for demand accesses (Ratio)
system.cpu.l1d.overallMissRate::cpu.data     0.064677                       # miss rate for overall accesses (Ratio)
system.cpu.l1d.overallMissRate::total        0.064677                       # miss rate for overall accesses (Ratio)
system.cpu.l1d.demandAvgMissLatency::cpu.data 208351.041625                       # average overall miss latency in ticks ((Tick/Count))
system.cpu.l1d.demandAvgMissLatency::total 208351.041625                       # average overall miss latency in ticks ((Tick/Count))
system.cpu.l1d.overallAvgMissLatency::cpu.data 208351.041625                       # average overall miss latency ((Tick/Count))
system.cpu.l1d.overallAvgMissLatency::total 208351.041625                       # average overall miss latency ((Tick/Count))
system.cpu.l1d.blockedCycles::no_mshrs              0                       # number of cycles access was blocked (Cycle)
system.cpu.l1d.blockedCycles::no_targets            0                       # number of cycles access was blocked (Cycle)
system.cpu.l1d.blockedCauses::no_mshrs              0                       # number of times access was blocked (Count)
system.cpu.l1d.blockedCauses::no_targets            0                       # number of times access was blocked (Count)
system.cpu.l1d.avgBlocked::no_mshrs               nan                       # average number of cycles each access was blocked ((Cycle/Count))
system.cpu.l1d.avgBlocked::no_targets             nan                       # average number of cycles each access was blocked ((Cycle/Count))
system.cpu.l1d.writebacks::writebacks         3161305                       # number of writebacks (Count)
system.cpu.l1d.writebacks::total              3161305                       # number of writebacks (Count)
system.cpu.l1d.demandMshrHits::cpu.data        278704                       # number of demand (read+write) MSHR hits (Count)
system.cpu.l1d.demandMshrHits::total           278704                       # number of demand (read+write) MSHR hits (Count)
system.cpu.l1d.overallMshrHits::cpu.data       278704                       # number of overall MSHR hits (Count)
system.cpu.l1d.overallMshrHits::total          278704                       # number of overall MSHR hits (Count)
system.cpu.l1d.demandMshrMisses::cpu.data      8774977                       # number of demand (read+write) MSHR misses (Count)
system.cpu.l1d.demandMshrMisses::total        8774977                       # number of demand (read+write) MSHR misses (Count)
system.cpu.l1d.overallMshrMisses::cpu.data      8774977                       # number of overall MSHR misses (Count)
system.cpu.l1d.overallMshrMisses::cpu.l1d.prefetcher     16894143                       # number of overall MSHR misses (Count)
system.cpu.l1d.overallMshrMisses::total      25669120                       # number of overall MSHR misses (Count)
system.cpu.l1d.demandMshrMissLatency::cpu.data 1743177152815                       # number of demand (read+write) MSHR miss ticks (Tick)
system.cpu.l1d.demandMshrMissLatency::total 1743177152815                       # number of demand (read+write) MSHR miss ticks (Tick)
system.cpu.l1d.overallMshrMissLatency::cpu.data 1743177152815                       # number of overall MSHR miss ticks (Tick)
system.cpu.l1d.overallMshrMissLatency::cpu.l1d.prefetcher 4438214795779                       # number of overall MSHR miss ticks (Tick)
system.cpu.l1d.overallMshrMissLatency::total 6181391948594                       # number of overall MSHR miss ticks (Tick)
system.cpu.l1d.demandMshrMissRate::cpu.data     0.062686                       # mshr miss ratio for demand accesses (Ratio)
system.cpu.l1d.demandMshrMissRate::total     0.062686                       # mshr miss ratio for demand accesses (Ratio)
system.cpu.l1d.overallMshrMissRate::cpu.data     0.062686                       # mshr miss ratio for overall accesses (Ratio)
system.cpu.l1d.overallMshrMissRate::cpu.l1d.prefetcher          inf                       # mshr miss ratio for overall accesses (Ratio)
system.cpu.l1d.overallMshrMissRate::total     0.183374                       # mshr miss ratio for overall accesses (Ratio)
system.cpu.l1d.demandAvgMshrMissLatency::cpu.data 198653.187674                       # average overall mshr miss latency ((Tick/Count))
system.cpu.l1d.demandAvgMshrMissLatency::total 198653.187674                       # average overall mshr miss latency ((Tick/Count))
system.cpu.l1d.overallAvgMshrMissLatency::cpu.data 198653.187674                       # average overall mshr miss latency ((Tick/Count))
system.cpu.l1d.overallAvgMshrMissLatency::cpu.l1d.prefetcher 262707.306063                       # average overall mshr miss latency ((Tick/Count))
system.cpu.l1d.overallAvgMshrMissLatency::total 240810.434818                       # average overall mshr miss latency ((Tick/Count))
system.cpu.l1d.replacements                  25669122                       # number of replacements (Count)
system.cpu.l1d.HardPFReq.mshrMisses::cpu.l1d.prefetcher     16894143                       # number of HardPFReq MSHR misses (Count)
system.cpu.l1d.HardPFReq.mshrMisses::total     16894143                       # number of HardPFReq MSHR misses (Count)
system.cpu.l1d.HardPFReq.mshrMissLatency::cpu.l1d.prefetcher 4438214795779                       # number of HardPFReq MSHR miss ticks (Tick)
system.cpu.l1d.HardPFReq.mshrMissLatency::total 4438214795779                       # number of HardPFReq MSHR miss ticks (Tick)
system.cpu.l1d.HardPFReq.mshrMissRate::cpu.l1d.prefetcher          inf                       # mshr miss rate for HardPFReq accesses (Ratio)
system.cpu.l1d.HardPFReq.mshrMissRate::total          inf                       # mshr miss rate for HardPFReq accesses (Ratio)
system.cpu.l1d.HardPFReq.avgMshrMissLatency::cpu.l1d.prefetcher 262707.306063                       # average HardPFReq mshr miss latency ((Tick/Count))
system.cpu.l1d.HardPFReq.avgMshrMissLatency::total 262707.306063                       # average HardPFReq mshr miss latency ((Tick/Count))
system.cpu.l1d.LockedRMWReadReq.hits::cpu.data        68611                       # number of LockedRMWReadReq hits (Count)
system.cpu.l1d.LockedRMWReadReq.hits::total        68611                       # number of LockedRMWReadReq hits (Count)
system.cpu.l1d.LockedRMWReadReq.misses::cpu.data           66                       # number of LockedRMWReadReq misses (Count)
system.cpu.l1d.LockedRMWReadReq.misses::total           66                       # number of LockedRMWReadReq misses (Count)
system.cpu.l1d.LockedRMWReadReq.missLatency::cpu.data     14652967                       # number of LockedRMWReadReq miss ticks (Tick)
system.cpu.l1d.LockedRMWReadReq.missLatency::total     14652967                       # number of LockedRMWReadReq miss ticks (Tick)
system.cpu.l1d.LockedRMWReadReq.accesses::cpu.data        68677                       # number of LockedRMWReadReq accesses(hits+misses) (Count)
system.cpu.l1d.LockedRMWReadReq.accesses::total        68677                       # number of LockedRMWReadReq accesses(hits+misses) (Count)
system.cpu.l1d.LockedRMWReadReq.missRate::cpu.data     0.000961                       # miss rate for LockedRMWReadReq accesses (Ratio)
system.cpu.l1d.LockedRMWReadReq.missRate::total     0.000961                       # miss rate for LockedRMWReadReq accesses (Ratio)
system.cpu.l1d.LockedRMWReadReq.avgMissLatency::cpu.data 222014.651515                       # average LockedRMWReadReq miss latency ((Tick/Count))
system.cpu.l1d.LockedRMWReadReq.avgMissLatency::total 222014.651515                       # average LockedRMWReadReq miss latency ((Tick/Count))
system.cpu.l1d.LockedRMWReadReq.mshrMisses::cpu.data           66                       # number of LockedRMWReadReq MSHR misses (Count)
system.cpu.l1d.LockedRMWReadReq.mshrMisses::total           66                       # number of LockedRMWReadReq MSHR misses (Count)
system.cpu.l1d.LockedRMWReadReq.mshrMissLatency::cpu.data    943216419                       # number of LockedRMWReadReq MSHR miss ticks (Tick)
system.cpu.l1d.LockedRMWReadReq.mshrMissLatency::total    943216419                       # number of LockedRMWReadReq MSHR miss ticks (Tick)
system.cpu.l1d.LockedRMWReadReq.mshrMissRate::cpu.data     0.000961                       # mshr miss rate for LockedRMWReadReq accesses (Ratio)
system.cpu.l1d.LockedRMWReadReq.mshrMissRate::total     0.000961                       # mshr miss rate for LockedRMWReadReq accesses (Ratio)
system.cpu.l1d.LockedRMWReadReq.avgMshrMissLatency::cpu.data 14291157.863636                       # average LockedRMWReadReq mshr miss latency ((Tick/Count))
system.cpu.l1d.LockedRMWReadReq.avgMshrMissLatency::total 14291157.863636                       # average LockedRMWReadReq mshr miss latency ((Tick/Count))
system.cpu.l1d.LockedRMWWriteReq.hits::cpu.data        68677                       # number of LockedRMWWriteReq hits (Count)
system.cpu.l1d.LockedRMWWriteReq.hits::total        68677                       # number of LockedRMWWriteReq hits (Count)
system.cpu.l1d.LockedRMWWriteReq.accesses::cpu.data        68677                       # number of LockedRMWWriteReq accesses(hits+misses) (Count)
system.cpu.l1d.LockedRMWWriteReq.accesses::total        68677                       # number of LockedRMWWriteReq accesses(hits+misses) (Count)
system.cpu.l1d.ReadReq.hits::cpu.data        97972873                       # number of ReadReq hits (Count)
system.cpu.l1d.ReadReq.hits::total           97972873                       # number of ReadReq hits (Count)
system.cpu.l1d.ReadReq.misses::cpu.data       7883153                       # number of ReadReq misses (Count)
system.cpu.l1d.ReadReq.misses::total          7883153                       # number of ReadReq misses (Count)
system.cpu.l1d.ReadReq.missLatency::cpu.data 1660794305771                       # number of ReadReq miss ticks (Tick)
system.cpu.l1d.ReadReq.missLatency::total 1660794305771                       # number of ReadReq miss ticks (Tick)
system.cpu.l1d.ReadReq.accesses::cpu.data    105856026                       # number of ReadReq accesses(hits+misses) (Count)
system.cpu.l1d.ReadReq.accesses::total      105856026                       # number of ReadReq accesses(hits+misses) (Count)
system.cpu.l1d.ReadReq.missRate::cpu.data     0.074471                       # miss rate for ReadReq accesses (Ratio)
system.cpu.l1d.ReadReq.missRate::total       0.074471                       # miss rate for ReadReq accesses (Ratio)
system.cpu.l1d.ReadReq.avgMissLatency::cpu.data 210676.401406                       # average ReadReq miss latency ((Tick/Count))
system.cpu.l1d.ReadReq.avgMissLatency::total 210676.401406                       # average ReadReq miss latency ((Tick/Count))
system.cpu.l1d.ReadReq.mshrHits::cpu.data       258107                       # number of ReadReq MSHR hits (Count)
system.cpu.l1d.ReadReq.mshrHits::total         258107                       # number of ReadReq MSHR hits (Count)
system.cpu.l1d.ReadReq.mshrMisses::cpu.data      7625046                       # number of ReadReq MSHR misses (Count)
system.cpu.l1d.ReadReq.mshrMisses::total      7625046                       # number of ReadReq MSHR misses (Count)
system.cpu.l1d.ReadReq.mshrMissLatency::cpu.data 1534017888594                       # number of ReadReq MSHR miss ticks (Tick)
system.cpu.l1d.ReadReq.mshrMissLatency::total 1534017888594                       # number of ReadReq MSHR miss ticks (Tick)
system.cpu.l1d.ReadReq.mshrMissRate::cpu.data     0.072032                       # mshr miss rate for ReadReq accesses (Ratio)
system.cpu.l1d.ReadReq.mshrMissRate::total     0.072032                       # mshr miss rate for ReadReq accesses (Ratio)
system.cpu.l1d.ReadReq.avgMshrMissLatency::cpu.data 201181.460229                       # average ReadReq mshr miss latency ((Tick/Count))
system.cpu.l1d.ReadReq.avgMshrMissLatency::total 201181.460229                       # average ReadReq mshr miss latency ((Tick/Count))
system.cpu.l1d.WriteReq.hits::cpu.data       32956130                       # number of WriteReq hits (Count)
system.cpu.l1d.WriteReq.hits::total          32956130                       # number of WriteReq hits (Count)
system.cpu.l1d.WriteReq.misses::cpu.data      1170528                       # number of WriteReq misses (Count)
system.cpu.l1d.WriteReq.misses::total         1170528                       # number of WriteReq misses (Count)
system.cpu.l1d.WriteReq.missLatency::cpu.data 225549561120                       # number of WriteReq miss ticks (Tick)
system.cpu.l1d.WriteReq.missLatency::total 225549561120                       # number of WriteReq miss ticks (Tick)
system.cpu.l1d.WriteReq.accesses::cpu.data     34126658                       # number of WriteReq accesses(hits+misses) (Count)
system.cpu.l1d.WriteReq.accesses::total      34126658                       # number of WriteReq accesses(hits+misses) (Count)
system.cpu.l1d.WriteReq.missRate::cpu.data     0.034300                       # miss rate for WriteReq accesses (Ratio)
system.cpu.l1d.WriteReq.missRate::total      0.034300                       # miss rate for WriteReq accesses (Ratio)
system.cpu.l1d.WriteReq.avgMissLatency::cpu.data 192690.444927                       # average WriteReq miss latency ((Tick/Count))
system.cpu.l1d.WriteReq.avgMissLatency::total 192690.444927                       # average WriteReq miss latency ((Tick/Count))
system.cpu.l1d.WriteReq.mshrHits::cpu.data        20597                       # number of WriteReq MSHR hits (Count)
system.cpu.l1d.WriteReq.mshrHits::total         20597                       # number of WriteReq MSHR hits (Count)
system.cpu.l1d.WriteReq.mshrMisses::cpu.data      1149931                       # number of WriteReq MSHR misses (Count)
system.cpu.l1d.WriteReq.mshrMisses::total      1149931                       # number of WriteReq MSHR misses (Count)
system.cpu.l1d.WriteReq.mshrMissLatency::cpu.data 209159264221                       # number of WriteReq MSHR miss ticks (Tick)
system.cpu.l1d.WriteReq.mshrMissLatency::total 209159264221                       # number of WriteReq MSHR miss ticks (Tick)
system.cpu.l1d.WriteReq.mshrMissRate::cpu.data     0.033696                       # mshr miss rate for WriteReq accesses (Ratio)
system.cpu.l1d.WriteReq.mshrMissRate::total     0.033696                       # mshr miss rate for WriteReq accesses (Ratio)
system.cpu.l1d.WriteReq.avgMshrMissLatency::cpu.data 181888.534374                       # average WriteReq mshr miss latency ((Tick/Count))
system.cpu.l1d.WriteReq.avgMshrMissLatency::total 181888.534374                       # average WriteReq mshr miss latency ((Tick/Count))
system.cpu.l1d.power_state.pwrStateResidencyTicks::UNDEFINED 10236691676310                       # Cumulative time (in ticks) in various power states (Tick)
system.cpu.l1d.prefetcher.demandMshrMisses      8774977                       # demands not covered by prefetchs (Count)
system.cpu.l1d.prefetcher.pfIssued           25147879                       # number of hwpf issued (Count)
system.cpu.l1d.prefetcher.pfUnused           12825420                       # number of HardPF blocks evicted w/o reference (Count)
system.cpu.l1d.prefetcher.pfUseful            3789989                       # number of useful prefetch (Count)
system.cpu.l1d.prefetcher.pfUsefulButMiss            0                       # number of hit on prefetch but cache block is not in an usable state (Count)
system.cpu.l1d.prefetcher.accuracy           0.150708                       # accuracy of the prefetcher (Count)
system.cpu.l1d.prefetcher.coverage           0.301631                       # coverage brought by this prefetcher (Count)
system.cpu.l1d.prefetcher.pfHitInCache        7594756                       # number of prefetches hitting in cache (Count)
system.cpu.l1d.prefetcher.pfHitInMSHR          640749                       # number of prefetches hitting in a MSHR (Count)
system.cpu.l1d.prefetcher.pfHitInWB             18231                       # number of prefetches hit in the Write Buffer (Count)
system.cpu.l1d.prefetcher.pfLate              8253736                       # number of late prefetches (hitting in cache, MSHR or WB) (Count)
system.cpu.l1d.prefetcher.pfIdentified       25147997                       # number of prefetch candidates identified (Count)
system.cpu.l1d.prefetcher.pfBufferHit               0                       # number of redundant prefetches already in prefetch queue (Count)
system.cpu.l1d.prefetcher.pfInCache                 0                       # number of redundant prefetches already in cache/mshr dropped (Count)
system.cpu.l1d.prefetcher.pfRemovedDemand           37                       # number of prefetches dropped due to a demand for the same address (Count)
system.cpu.l1d.prefetcher.pfRemovedFull             0                       # number of prefetches dropped due to prefetch queue size (Count)
system.cpu.l1d.prefetcher.pfSpanPage           539475                       # number of prefetches that crossed the page (Count)
system.cpu.l1d.prefetcher.pfUsefulSpanPage       201241                       # number of prefetches that is useful and crossed the page (Count)
system.cpu.l1d.prefetcher.power_state.pwrStateResidencyTicks::UNDEFINED 10236691676310                       # Cumulative time (in ticks) in various power states (Tick)
system.cpu.l1d.tags.tagsInUse               63.999925                       # Average ticks per tags in use ((Tick/Count))
system.cpu.l1d.tags.totalRefs               156734907                       # Total number of references to valid blocks. (Count)
system.cpu.l1d.tags.sampledRefs              25669122                       # Sample count of references to valid blocks. (Count)
system.cpu.l1d.tags.avgRefs                  6.105971                       # Average number of references to valid blocks. ((Count/Count))
system.cpu.l1d.tags.warmupTick                 479988                       # The tick when the warmup percentage was hit. (Tick)
system.cpu.l1d.tags.occupancies::cpu.data    23.946971                       # Average occupied blocks per tick, per requestor ((Count/Tick))
system.cpu.l1d.tags.occupancies::cpu.l1d.prefetcher    40.052955                       # Average occupied blocks per tick, per requestor ((Count/Tick))
system.cpu.l1d.tags.avgOccs::cpu.data        0.374171                       # Average percentage of cache occupancy ((Ratio/Tick))
system.cpu.l1d.tags.avgOccs::cpu.l1d.prefetcher     0.625827                       # Average percentage of cache occupancy ((Ratio/Tick))
system.cpu.l1d.tags.avgOccs::total           0.999999                       # Average percentage of cache occupancy ((Ratio/Tick))
system.cpu.l1d.tags.occupanciesTaskId::1022           42                       # Occupied blocks per task id (Count)
system.cpu.l1d.tags.occupanciesTaskId::1024           22                       # Occupied blocks per task id (Count)
system.cpu.l1d.tags.ageTaskId_1022::0              19                       # Occupied blocks per task id, per block age (Count)
system.cpu.l1d.tags.ageTaskId_1022::1              23                       # Occupied blocks per task id, per block age (Count)
system.cpu.l1d.tags.ageTaskId_1024::0               8                       # Occupied blocks per task id, per block age (Count)
system.cpu.l1d.tags.ageTaskId_1024::1              12                       # Occupied blocks per task id, per block age (Count)
system.cpu.l1d.tags.ageTaskId_1024::2               2                       # Occupied blocks per task id, per block age (Count)
system.cpu.l1d.tags.ratioOccsTaskId::1022     0.656250                       # Ratio of occupied blocks and all blocks, per task id (Ratio)
system.cpu.l1d.tags.ratioOccsTaskId::1024     0.343750                       # Ratio of occupied blocks and all blocks, per task id (Ratio)
system.cpu.l1d.tags.tagAccesses             305909262                       # Number of tag accesses (Count)
system.cpu.l1d.tags.dataAccesses            305909262                       # Number of data accesses (Count)
system.cpu.l1d.tags.power_state.pwrStateResidencyTicks::UNDEFINED 10236691676310                       # Cumulative time (in ticks) in various power states (Tick)
system.cpu.l1i.demandHits::cpu.inst         451742109                       # number of demand (read+write) hits (Count)
system.cpu.l1i.demandHits::total            451742109                       # number of demand (read+write) hits (Count)
system.cpu.l1i.overallHits::cpu.inst        451742109                       # number of overall hits (Count)
system.cpu.l1i.overallHits::total           451742109                       # number of overall hits (Count)
system.cpu.l1i.demandMisses::cpu.inst         1838684                       # number of demand (read+write) misses (Count)
system.cpu.l1i.demandMisses::total            1838684                       # number of demand (read+write) misses (Count)
system.cpu.l1i.overallMisses::cpu.inst        1838684                       # number of overall misses (Count)
system.cpu.l1i.overallMisses::total           1838684                       # number of overall misses (Count)
system.cpu.l1i.demandMissLatency::cpu.inst 361990563343                       # number of demand (read+write) miss ticks (Tick)
system.cpu.l1i.demandMissLatency::total  361990563343                       # number of demand (read+write) miss ticks (Tick)
system.cpu.l1i.overallMissLatency::cpu.inst 361990563343                       # number of overall miss ticks (Tick)
system.cpu.l1i.overallMissLatency::total 361990563343                       # number of overall miss ticks (Tick)
system.cpu.l1i.demandAccesses::cpu.inst     453580793                       # number of demand (read+write) accesses (Count)
system.cpu.l1i.demandAccesses::total        453580793                       # number of demand (read+write) accesses (Count)
system.cpu.l1i.overallAccesses::cpu.inst    453580793                       # number of overall (read+write) accesses (Count)
system.cpu.l1i.overallAccesses::total       453580793                       # number of overall (read+write) accesses (Count)
system.cpu.l1i.demandMissRate::cpu.inst      0.004054                       # miss rate for demand accesses (Ratio)
system.cpu.l1i.demandMissRate::total         0.004054                       # miss rate for demand accesses (Ratio)
system.cpu.l1i.overallMissRate::cpu.inst     0.004054                       # miss rate for overall accesses (Ratio)
system.cpu.l1i.overallMissRate::total        0.004054                       # miss rate for overall accesses (Ratio)
system.cpu.l1i.demandAvgMissLatency::cpu.inst 196874.810105                       # average overall miss latency in ticks ((Tick/Count))
system.cpu.l1i.demandAvgMissLatency::total 196874.810105                       # average overall miss latency in ticks ((Tick/Count))
system.cpu.l1i.overallAvgMissLatency::cpu.inst 196874.810105                       # average overall miss latency ((Tick/Count))
system.cpu.l1i.overallAvgMissLatency::total 196874.810105                       # average overall miss latency ((Tick/Count))
system.cpu.l1i.blockedCycles::no_mshrs              0                       # number of cycles access was blocked (Cycle)
system.cpu.l1i.blockedCycles::no_targets            0                       # number of cycles access was blocked (Cycle)
system.cpu.l1i.blockedCauses::no_mshrs              0                       # number of times access was blocked (Count)
system.cpu.l1i.blockedCauses::no_targets            0                       # number of times access was blocked (Count)
system.cpu.l1i.avgBlocked::no_mshrs               nan                       # average number of cycles each access was blocked ((Cycle/Count))
system.cpu.l1i.avgBlocked::no_targets             nan                       # average number of cycles each access was blocked ((Cycle/Count))
system.cpu.l1i.demandMshrHits::cpu.inst        231525                       # number of demand (read+write) MSHR hits (Count)
system.cpu.l1i.demandMshrHits::total           231525                       # number of demand (read+write) MSHR hits (Count)
system.cpu.l1i.overallMshrHits::cpu.inst       231525                       # number of overall MSHR hits (Count)
system.cpu.l1i.overallMshrHits::total          231525                       # number of overall MSHR hits (Count)
system.cpu.l1i.demandMshrMisses::cpu.inst      1607159                       # number of demand (read+write) MSHR misses (Count)
system.cpu.l1i.demandMshrMisses::total        1607159                       # number of demand (read+write) MSHR misses (Count)
system.cpu.l1i.overallMshrMisses::cpu.inst      1607159                       # number of overall MSHR misses (Count)
system.cpu.l1i.overallMshrMisses::cpu.l1i.prefetcher      4494504                       # number of overall MSHR misses (Count)
system.cpu.l1i.overallMshrMisses::total       6101663                       # number of overall MSHR misses (Count)
system.cpu.l1i.demandMshrMissLatency::cpu.inst 324003073054                       # number of demand (read+write) MSHR miss ticks (Tick)
system.cpu.l1i.demandMshrMissLatency::total 324003073054                       # number of demand (read+write) MSHR miss ticks (Tick)
system.cpu.l1i.overallMshrMissLatency::cpu.inst 324003073054                       # number of overall MSHR miss ticks (Tick)
system.cpu.l1i.overallMshrMissLatency::cpu.l1i.prefetcher 1123406707597                       # number of overall MSHR miss ticks (Tick)
system.cpu.l1i.overallMshrMissLatency::total 1447409780651                       # number of overall MSHR miss ticks (Tick)
system.cpu.l1i.demandMshrMissRate::cpu.inst     0.003543                       # mshr miss ratio for demand accesses (Ratio)
system.cpu.l1i.demandMshrMissRate::total     0.003543                       # mshr miss ratio for demand accesses (Ratio)
system.cpu.l1i.overallMshrMissRate::cpu.inst     0.003543                       # mshr miss ratio for overall accesses (Ratio)
system.cpu.l1i.overallMshrMissRate::cpu.l1i.prefetcher          inf                       # mshr miss ratio for overall accesses (Ratio)
system.cpu.l1i.overallMshrMissRate::total     0.013452                       # mshr miss ratio for overall accesses (Ratio)
system.cpu.l1i.demandAvgMshrMissLatency::cpu.inst 201599.887164                       # average overall mshr miss latency ((Tick/Count))
system.cpu.l1i.demandAvgMshrMissLatency::total 201599.887164                       # average overall mshr miss latency ((Tick/Count))
system.cpu.l1i.overallAvgMshrMissLatency::cpu.inst 201599.887164                       # average overall mshr miss latency ((Tick/Count))
system.cpu.l1i.overallAvgMshrMissLatency::cpu.l1i.prefetcher 249951.208765                       # average overall mshr miss latency ((Tick/Count))
system.cpu.l1i.overallAvgMshrMissLatency::total 237215.621487                       # average overall mshr miss latency ((Tick/Count))
system.cpu.l1i.replacements                   6101597                       # number of replacements (Count)
system.cpu.l1i.HardPFReq.mshrMisses::cpu.l1i.prefetcher      4494504                       # number of HardPFReq MSHR misses (Count)
system.cpu.l1i.HardPFReq.mshrMisses::total      4494504                       # number of HardPFReq MSHR misses (Count)
system.cpu.l1i.HardPFReq.mshrMissLatency::cpu.l1i.prefetcher 1123406707597                       # number of HardPFReq MSHR miss ticks (Tick)
system.cpu.l1i.HardPFReq.mshrMissLatency::total 1123406707597                       # number of HardPFReq MSHR miss ticks (Tick)
system.cpu.l1i.HardPFReq.mshrMissRate::cpu.l1i.prefetcher          inf                       # mshr miss rate for HardPFReq accesses (Ratio)
system.cpu.l1i.HardPFReq.mshrMissRate::total          inf                       # mshr miss rate for HardPFReq accesses (Ratio)
system.cpu.l1i.HardPFReq.avgMshrMissLatency::cpu.l1i.prefetcher 249951.208765                       # average HardPFReq mshr miss latency ((Tick/Count))
system.cpu.l1i.HardPFReq.avgMshrMissLatency::total 249951.208765                       # average HardPFReq mshr miss latency ((Tick/Count))
system.cpu.l1i.ReadReq.hits::cpu.inst       451742109                       # number of ReadReq hits (Count)
system.cpu.l1i.ReadReq.hits::total          451742109                       # number of ReadReq hits (Count)
system.cpu.l1i.ReadReq.misses::cpu.inst       1838684                       # number of ReadReq misses (Count)
system.cpu.l1i.ReadReq.misses::total          1838684                       # number of ReadReq misses (Count)
system.cpu.l1i.ReadReq.missLatency::cpu.inst 361990563343                       # number of ReadReq miss ticks (Tick)
system.cpu.l1i.ReadReq.missLatency::total 361990563343                       # number of ReadReq miss ticks (Tick)
system.cpu.l1i.ReadReq.accesses::cpu.inst    453580793                       # number of ReadReq accesses(hits+misses) (Count)
system.cpu.l1i.ReadReq.accesses::total      453580793                       # number of ReadReq accesses(hits+misses) (Count)
system.cpu.l1i.ReadReq.missRate::cpu.inst     0.004054                       # miss rate for ReadReq accesses (Ratio)
system.cpu.l1i.ReadReq.missRate::total       0.004054                       # miss rate for ReadReq accesses (Ratio)
system.cpu.l1i.ReadReq.avgMissLatency::cpu.inst 196874.810105                       # average ReadReq miss latency ((Tick/Count))
system.cpu.l1i.ReadReq.avgMissLatency::total 196874.810105                       # average ReadReq miss latency ((Tick/Count))
system.cpu.l1i.ReadReq.mshrHits::cpu.inst       231525                       # number of ReadReq MSHR hits (Count)
system.cpu.l1i.ReadReq.mshrHits::total         231525                       # number of ReadReq MSHR hits (Count)
system.cpu.l1i.ReadReq.mshrMisses::cpu.inst      1607159                       # number of ReadReq MSHR misses (Count)
system.cpu.l1i.ReadReq.mshrMisses::total      1607159                       # number of ReadReq MSHR misses (Count)
system.cpu.l1i.ReadReq.mshrMissLatency::cpu.inst 324003073054                       # number of ReadReq MSHR miss ticks (Tick)
system.cpu.l1i.ReadReq.mshrMissLatency::total 324003073054                       # number of ReadReq MSHR miss ticks (Tick)
system.cpu.l1i.ReadReq.mshrMissRate::cpu.inst     0.003543                       # mshr miss rate for ReadReq accesses (Ratio)
system.cpu.l1i.ReadReq.mshrMissRate::total     0.003543                       # mshr miss rate for ReadReq accesses (Ratio)
system.cpu.l1i.ReadReq.avgMshrMissLatency::cpu.inst 201599.887164                       # average ReadReq mshr miss latency ((Tick/Count))
system.cpu.l1i.ReadReq.avgMshrMissLatency::total 201599.887164                       # average ReadReq mshr miss latency ((Tick/Count))
system.cpu.l1i.power_state.pwrStateResidencyTicks::UNDEFINED 10236691676310                       # Cumulative time (in ticks) in various power states (Tick)
system.cpu.l1i.prefetcher.demandMshrMisses      1607159                       # demands not covered by prefetchs (Count)
system.cpu.l1i.prefetcher.pfIssued            7158455                       # number of hwpf issued (Count)
system.cpu.l1i.prefetcher.pfUnused            2334409                       # number of HardPF blocks evicted w/o reference (Count)
system.cpu.l1i.prefetcher.pfUseful            1928548                       # number of useful prefetch (Count)
system.cpu.l1i.prefetcher.pfUsefulButMiss            0                       # number of hit on prefetch but cache block is not in an usable state (Count)
system.cpu.l1i.prefetcher.accuracy           0.269408                       # accuracy of the prefetcher (Count)
system.cpu.l1i.prefetcher.coverage           0.545449                       # coverage brought by this prefetcher (Count)
system.cpu.l1i.prefetcher.pfHitInCache        2299452                       # number of prefetches hitting in cache (Count)
system.cpu.l1i.prefetcher.pfHitInMSHR          364496                       # number of prefetches hitting in a MSHR (Count)
system.cpu.l1i.prefetcher.pfHitInWB                 3                       # number of prefetches hit in the Write Buffer (Count)
system.cpu.l1i.prefetcher.pfLate              2663951                       # number of late prefetches (hitting in cache, MSHR or WB) (Count)
system.cpu.l1i.prefetcher.pfIdentified        7158485                       # number of prefetch candidates identified (Count)
system.cpu.l1i.prefetcher.pfBufferHit               0                       # number of redundant prefetches already in prefetch queue (Count)
system.cpu.l1i.prefetcher.pfInCache                 0                       # number of redundant prefetches already in cache/mshr dropped (Count)
system.cpu.l1i.prefetcher.pfRemovedDemand            6                       # number of prefetches dropped due to a demand for the same address (Count)
system.cpu.l1i.prefetcher.pfRemovedFull             0                       # number of prefetches dropped due to prefetch queue size (Count)
system.cpu.l1i.prefetcher.pfSpanPage           375979                       # number of prefetches that crossed the page (Count)
system.cpu.l1i.prefetcher.pfUsefulSpanPage       202303                       # number of prefetches that is useful and crossed the page (Count)
system.cpu.l1i.prefetcher.power_state.pwrStateResidencyTicks::UNDEFINED 10236691676310                       # Cumulative time (in ticks) in various power states (Tick)
system.cpu.l1i.tags.tagsInUse               63.999756                       # Average ticks per tags in use ((Tick/Count))
system.cpu.l1i.tags.totalRefs               439484568                       # Total number of references to valid blocks. (Count)
system.cpu.l1i.tags.sampledRefs               6101597                       # Sample count of references to valid blocks. (Count)
system.cpu.l1i.tags.avgRefs                 72.027793                       # Average number of references to valid blocks. ((Count/Count))
system.cpu.l1i.tags.warmupTick                 199995                       # The tick when the warmup percentage was hit. (Tick)
system.cpu.l1i.tags.occupancies::cpu.inst    18.252419                       # Average occupied blocks per tick, per requestor ((Count/Tick))
system.cpu.l1i.tags.occupancies::cpu.l1i.prefetcher    45.747337                       # Average occupied blocks per tick, per requestor ((Count/Tick))
system.cpu.l1i.tags.avgOccs::cpu.inst        0.285194                       # Average percentage of cache occupancy ((Ratio/Tick))
system.cpu.l1i.tags.avgOccs::cpu.l1i.prefetcher     0.714802                       # Average percentage of cache occupancy ((Ratio/Tick))
system.cpu.l1i.tags.avgOccs::total           0.999996                       # Average percentage of cache occupancy ((Ratio/Tick))
system.cpu.l1i.tags.occupanciesTaskId::1022           41                       # Occupied blocks per task id (Count)
system.cpu.l1i.tags.occupanciesTaskId::1024           23                       # Occupied blocks per task id (Count)
system.cpu.l1i.tags.ageTaskId_1022::0              17                       # Occupied blocks per task id, per block age (Count)
system.cpu.l1i.tags.ageTaskId_1022::3               1                       # Occupied blocks per task id, per block age (Count)
system.cpu.l1i.tags.ageTaskId_1022::4              23                       # Occupied blocks per task id, per block age (Count)
system.cpu.l1i.tags.ageTaskId_1024::0               8                       # Occupied blocks per task id, per block age (Count)
system.cpu.l1i.tags.ageTaskId_1024::1               2                       # Occupied blocks per task id, per block age (Count)
system.cpu.l1i.tags.ageTaskId_1024::4              13                       # Occupied blocks per task id, per block age (Count)
system.cpu.l1i.tags.ratioOccsTaskId::1022     0.640625                       # Ratio of occupied blocks and all blocks, per task id (Ratio)
system.cpu.l1i.tags.ratioOccsTaskId::1024     0.359375                       # Ratio of occupied blocks and all blocks, per task id (Ratio)
system.cpu.l1i.tags.tagAccesses             913263247                       # Number of tag accesses (Count)
system.cpu.l1i.tags.dataAccesses            913263247                       # Number of data accesses (Count)
system.cpu.l1i.tags.power_state.pwrStateResidencyTicks::UNDEFINED 10236691676310                       # Cumulative time (in ticks) in various power states (Tick)
system.cpu.mmu.dtb.rdAccesses               105924955                       # TLB accesses on read requests (Count)
system.cpu.mmu.dtb.wrAccesses                34200257                       # TLB accesses on write requests (Count)
system.cpu.mmu.dtb.rdMisses                   3152310                       # TLB misses on read requests (Count)
system.cpu.mmu.dtb.wrMisses                    110984                       # TLB misses on write requests (Count)
system.cpu.mmu.dtb.walker.power_state.pwrStateResidencyTicks::UNDEFINED 10236691676310                       # Cumulative time (in ticks) in various power states (Tick)
system.cpu.mmu.itb.rdAccesses                       0                       # TLB accesses on read requests (Count)
system.cpu.mmu.itb.wrAccesses               453580933                       # TLB accesses on write requests (Count)
system.cpu.mmu.itb.rdMisses                         0                       # TLB misses on read requests (Count)
system.cpu.mmu.itb.wrMisses                       599                       # TLB misses on write requests (Count)
system.cpu.mmu.itb.walker.power_state.pwrStateResidencyTicks::UNDEFINED 10236691676310                       # Cumulative time (in ticks) in various power states (Tick)
system.cpu.power_state.pwrStateResidencyTicks::ON 10236691676310                       # Cumulative time (in ticks) in various power states (Tick)
system.cpu.thread_0.numInsts                        0                       # Number of Instructions committed (Count)
system.cpu.thread_0.numOps                          0                       # Number of Ops committed (Count)
system.cpu.thread_0.numMemRefs                      0                       # Number of Memory References (Count)
system.cpu.workload.numSyscalls                  1793                       # Number of system calls (Count)
system.mem_ctrl.avgPriority_writebacks::samples   1848227.00                       # Average QoS priority value for accepted requests (Count)
system.mem_ctrl.avgPriority_cpu.inst::samples   1607159.00                       # Average QoS priority value for accepted requests (Count)
system.mem_ctrl.avgPriority_cpu.data::samples   7477232.00                       # Average QoS priority value for accepted requests (Count)
system.mem_ctrl.avgPriority_cpu.l1d.prefetcher::samples  15953051.00                       # Average QoS priority value for accepted requests (Count)
system.mem_ctrl.avgPriority_cpu.l1i.prefetcher::samples   4494504.00                       # Average QoS priority value for accepted requests (Count)
system.mem_ctrl.priorityMinLatency       0.000000018750                       # per QoS priority minimum request to response latency (Second)
system.mem_ctrl.priorityMaxLatency       0.028826138496                       # per QoS priority maximum request to response latency (Second)
system.mem_ctrl.numReadWriteTurnArounds        103181                       # Number of turnarounds from READ to WRITE (Count)
system.mem_ctrl.numWriteReadTurnArounds        103181                       # Number of turnarounds from WRITE to READ (Count)
system.mem_ctrl.numStayReadState             64704569                       # Number of times bus staying in READ state (Count)
system.mem_ctrl.numStayWriteState             1748943                       # Number of times bus staying in WRITE state (Count)
system.mem_ctrl.readReqs                     31770849                       # Number of read requests accepted (Count)
system.mem_ctrl.writeReqs                     3161305                       # Number of write requests accepted (Count)
system.mem_ctrl.readBursts                   31770849                       # Number of controller read bursts, including those serviced by the write queue (Count)
system.mem_ctrl.writeBursts                   3161305                       # Number of controller write bursts, including those merged in the write queue (Count)
system.mem_ctrl.servicedByWrQ                 2238903                       # Number of controller read bursts serviced by the write queue (Count)
system.mem_ctrl.mergedWrBursts                1313078                       # Number of controller write bursts merged with an existing one (Count)
system.mem_ctrl.neitherReadNorWriteReqs             0                       # Number of requests that are neither read nor write (Count)
system.mem_ctrl.avgRdQLen                        1.95                       # Average read queue length when enqueuing ((Count/Tick))
system.mem_ctrl.avgWrQLen                       25.61                       # Average write queue length when enqueuing ((Count/Tick))
system.mem_ctrl.numRdRetry                          0                       # Number of times read queue was full causing retry (Count)
system.mem_ctrl.numWrRetry                          0                       # Number of times write queue was full causing retry (Count)
system.mem_ctrl.readPktSize::0                      0                       # Read request sizes (log2) (Count)
system.mem_ctrl.readPktSize::1                      0                       # Read request sizes (log2) (Count)
system.mem_ctrl.readPktSize::2                      0                       # Read request sizes (log2) (Count)
system.mem_ctrl.readPktSize::3                      0                       # Read request sizes (log2) (Count)
system.mem_ctrl.readPktSize::4                      0                       # Read request sizes (log2) (Count)
system.mem_ctrl.readPktSize::5                      0                       # Read request sizes (log2) (Count)
system.mem_ctrl.readPktSize::6               31770849                       # Read request sizes (log2) (Count)
system.mem_ctrl.writePktSize::0                     0                       # Write request sizes (log2) (Count)
system.mem_ctrl.writePktSize::1                     0                       # Write request sizes (log2) (Count)
system.mem_ctrl.writePktSize::2                     0                       # Write request sizes (log2) (Count)
system.mem_ctrl.writePktSize::3                     0                       # Write request sizes (log2) (Count)
system.mem_ctrl.writePktSize::4                     0                       # Write request sizes (log2) (Count)
system.mem_ctrl.writePktSize::5                     0                       # Write request sizes (log2) (Count)
system.mem_ctrl.writePktSize::6               3161305                       # Write request sizes (log2) (Count)
system.mem_ctrl.rdQLenPdf::0                 14438779                       # What read queue length does an incoming req see (Count)
system.mem_ctrl.rdQLenPdf::1                 10031393                       # What read queue length does an incoming req see (Count)
system.mem_ctrl.rdQLenPdf::2                  5038883                       # What read queue length does an incoming req see (Count)
system.mem_ctrl.rdQLenPdf::3                    20185                       # What read queue length does an incoming req see (Count)
system.mem_ctrl.rdQLenPdf::4                     2639                       # What read queue length does an incoming req see (Count)
system.mem_ctrl.rdQLenPdf::5                       65                       # What read queue length does an incoming req see (Count)
system.mem_ctrl.rdQLenPdf::6                        2                       # What read queue length does an incoming req see (Count)
system.mem_ctrl.rdQLenPdf::7                        0                       # What read queue length does an incoming req see (Count)
system.mem_ctrl.rdQLenPdf::8                        0                       # What read queue length does an incoming req see (Count)
system.mem_ctrl.rdQLenPdf::9                        0                       # What read queue length does an incoming req see (Count)
system.mem_ctrl.rdQLenPdf::10                       0                       # What read queue length does an incoming req see (Count)
system.mem_ctrl.rdQLenPdf::11                       0                       # What read queue length does an incoming req see (Count)
system.mem_ctrl.rdQLenPdf::12                       0                       # What read queue length does an incoming req see (Count)
system.mem_ctrl.rdQLenPdf::13                       0                       # What read queue length does an incoming req see (Count)
system.mem_ctrl.rdQLenPdf::14                       0                       # What read queue length does an incoming req see (Count)
system.mem_ctrl.rdQLenPdf::15                       0                       # What read queue length does an incoming req see (Count)
system.mem_ctrl.rdQLenPdf::16                       0                       # What read queue length does an incoming req see (Count)
system.mem_ctrl.rdQLenPdf::17                       0                       # What read queue length does an incoming req see (Count)
system.mem_ctrl.rdQLenPdf::18                       0                       # What read queue length does an incoming req see (Count)
system.mem_ctrl.rdQLenPdf::19                       0                       # What read queue length does an incoming req see (Count)
system.mem_ctrl.rdQLenPdf::20                       0                       # What read queue length does an incoming req see (Count)
system.mem_ctrl.rdQLenPdf::21                       0                       # What read queue length does an incoming req see (Count)
system.mem_ctrl.rdQLenPdf::22                       0                       # What read queue length does an incoming req see (Count)
system.mem_ctrl.rdQLenPdf::23                       0                       # What read queue length does an incoming req see (Count)
system.mem_ctrl.rdQLenPdf::24                       0                       # What read queue length does an incoming req see (Count)
system.mem_ctrl.rdQLenPdf::25                       0                       # What read queue length does an incoming req see (Count)
system.mem_ctrl.rdQLenPdf::26                       0                       # What read queue length does an incoming req see (Count)
system.mem_ctrl.rdQLenPdf::27                       0                       # What read queue length does an incoming req see (Count)
system.mem_ctrl.rdQLenPdf::28                       0                       # What read queue length does an incoming req see (Count)
system.mem_ctrl.rdQLenPdf::29                       0                       # What read queue length does an incoming req see (Count)
system.mem_ctrl.rdQLenPdf::30                       0                       # What read queue length does an incoming req see (Count)
system.mem_ctrl.rdQLenPdf::31                       0                       # What read queue length does an incoming req see (Count)
system.mem_ctrl.wrQLenPdf::0                        1                       # What write queue length does an incoming req see (Count)
system.mem_ctrl.wrQLenPdf::1                        1                       # What write queue length does an incoming req see (Count)
system.mem_ctrl.wrQLenPdf::2                        1                       # What write queue length does an incoming req see (Count)
system.mem_ctrl.wrQLenPdf::3                        1                       # What write queue length does an incoming req see (Count)
system.mem_ctrl.wrQLenPdf::4                        1                       # What write queue length does an incoming req see (Count)
system.mem_ctrl.wrQLenPdf::5                        1                       # What write queue length does an incoming req see (Count)
system.mem_ctrl.wrQLenPdf::6                        1                       # What write queue length does an incoming req see (Count)
system.mem_ctrl.wrQLenPdf::7                        1                       # What write queue length does an incoming req see (Count)
system.mem_ctrl.wrQLenPdf::8                        1                       # What write queue length does an incoming req see (Count)
system.mem_ctrl.wrQLenPdf::9                        1                       # What write queue length does an incoming req see (Count)
system.mem_ctrl.wrQLenPdf::10                       1                       # What write queue length does an incoming req see (Count)
system.mem_ctrl.wrQLenPdf::11                       1                       # What write queue length does an incoming req see (Count)
system.mem_ctrl.wrQLenPdf::12                       1                       # What write queue length does an incoming req see (Count)
system.mem_ctrl.wrQLenPdf::13                       1                       # What write queue length does an incoming req see (Count)
system.mem_ctrl.wrQLenPdf::14                       1                       # What write queue length does an incoming req see (Count)
system.mem_ctrl.wrQLenPdf::15                   91631                       # What write queue length does an incoming req see (Count)
system.mem_ctrl.wrQLenPdf::16                   99323                       # What write queue length does an incoming req see (Count)
system.mem_ctrl.wrQLenPdf::17                  104581                       # What write queue length does an incoming req see (Count)
system.mem_ctrl.wrQLenPdf::18                  103926                       # What write queue length does an incoming req see (Count)
system.mem_ctrl.wrQLenPdf::19                  104086                       # What write queue length does an incoming req see (Count)
system.mem_ctrl.wrQLenPdf::20                  103782                       # What write queue length does an incoming req see (Count)
system.mem_ctrl.wrQLenPdf::21                  103654                       # What write queue length does an incoming req see (Count)
system.mem_ctrl.wrQLenPdf::22                  103686                       # What write queue length does an incoming req see (Count)
system.mem_ctrl.wrQLenPdf::23                  103439                       # What write queue length does an incoming req see (Count)
system.mem_ctrl.wrQLenPdf::24                  103466                       # What write queue length does an incoming req see (Count)
system.mem_ctrl.wrQLenPdf::25                  103538                       # What write queue length does an incoming req see (Count)
system.mem_ctrl.wrQLenPdf::26                  103237                       # What write queue length does an incoming req see (Count)
system.mem_ctrl.wrQLenPdf::27                  103230                       # What write queue length does an incoming req see (Count)
system.mem_ctrl.wrQLenPdf::28                  103210                       # What write queue length does an incoming req see (Count)
system.mem_ctrl.wrQLenPdf::29                  103193                       # What write queue length does an incoming req see (Count)
system.mem_ctrl.wrQLenPdf::30                  103195                       # What write queue length does an incoming req see (Count)
system.mem_ctrl.wrQLenPdf::31                  103192                       # What write queue length does an incoming req see (Count)
system.mem_ctrl.wrQLenPdf::32                  103189                       # What write queue length does an incoming req see (Count)
system.mem_ctrl.wrQLenPdf::33                     551                       # What write queue length does an incoming req see (Count)
system.mem_ctrl.wrQLenPdf::34                      98                       # What write queue length does an incoming req see (Count)
system.mem_ctrl.wrQLenPdf::35                       5                       # What write queue length does an incoming req see (Count)
system.mem_ctrl.wrQLenPdf::36                       0                       # What write queue length does an incoming req see (Count)
system.mem_ctrl.wrQLenPdf::37                       0                       # What write queue length does an incoming req see (Count)
system.mem_ctrl.wrQLenPdf::38                       0                       # What write queue length does an incoming req see (Count)
system.mem_ctrl.wrQLenPdf::39                       0                       # What write queue length does an incoming req see (Count)
system.mem_ctrl.wrQLenPdf::40                       0                       # What write queue length does an incoming req see (Count)
system.mem_ctrl.wrQLenPdf::41                       0                       # What write queue length does an incoming req see (Count)
system.mem_ctrl.wrQLenPdf::42                       0                       # What write queue length does an incoming req see (Count)
system.mem_ctrl.wrQLenPdf::43                       0                       # What write queue length does an incoming req see (Count)
system.mem_ctrl.wrQLenPdf::44                       0                       # What write queue length does an incoming req see (Count)
system.mem_ctrl.wrQLenPdf::45                       0                       # What write queue length does an incoming req see (Count)
system.mem_ctrl.wrQLenPdf::46                       0                       # What write queue length does an incoming req see (Count)
system.mem_ctrl.wrQLenPdf::47                       0                       # What write queue length does an incoming req see (Count)
system.mem_ctrl.wrQLenPdf::48                       0                       # What write queue length does an incoming req see (Count)
system.mem_ctrl.wrQLenPdf::49                       0                       # What write queue length does an incoming req see (Count)
system.mem_ctrl.wrQLenPdf::50                       0                       # What write queue length does an incoming req see (Count)
system.mem_ctrl.wrQLenPdf::51                       0                       # What write queue length does an incoming req see (Count)
system.mem_ctrl.wrQLenPdf::52                       0                       # What write queue length does an incoming req see (Count)
system.mem_ctrl.wrQLenPdf::53                       0                       # What write queue length does an incoming req see (Count)
system.mem_ctrl.wrQLenPdf::54                       0                       # What write queue length does an incoming req see (Count)
system.mem_ctrl.wrQLenPdf::55                       0                       # What write queue length does an incoming req see (Count)
system.mem_ctrl.wrQLenPdf::56                       0                       # What write queue length does an incoming req see (Count)
system.mem_ctrl.wrQLenPdf::57                       0                       # What write queue length does an incoming req see (Count)
system.mem_ctrl.wrQLenPdf::58                       0                       # What write queue length does an incoming req see (Count)
system.mem_ctrl.wrQLenPdf::59                       0                       # What write queue length does an incoming req see (Count)
system.mem_ctrl.wrQLenPdf::60                       0                       # What write queue length does an incoming req see (Count)
system.mem_ctrl.wrQLenPdf::61                       0                       # What write queue length does an incoming req see (Count)
system.mem_ctrl.wrQLenPdf::62                       0                       # What write queue length does an incoming req see (Count)
system.mem_ctrl.wrQLenPdf::63                       0                       # What write queue length does an incoming req see (Count)
system.mem_ctrl.rdPerTurnAround::samples       103181                       # Reads before turning the bus around for writes (Count)
system.mem_ctrl.rdPerTurnAround::mean      286.214836                       # Reads before turning the bus around for writes (Count)
system.mem_ctrl.rdPerTurnAround::gmean      77.782461                       # Reads before turning the bus around for writes (Count)
system.mem_ctrl.rdPerTurnAround::stdev    1168.702253                       # Reads before turning the bus around for writes (Count)
system.mem_ctrl.rdPerTurnAround::0-2047        101382     98.26%     98.26% # Reads before turning the bus around for writes (Count)
system.mem_ctrl.rdPerTurnAround::2048-4095         1057      1.02%     99.28% # Reads before turning the bus around for writes (Count)
system.mem_ctrl.rdPerTurnAround::4096-6143          115      0.11%     99.39% # Reads before turning the bus around for writes (Count)
system.mem_ctrl.rdPerTurnAround::6144-8191           85      0.08%     99.47% # Reads before turning the bus around for writes (Count)
system.mem_ctrl.rdPerTurnAround::8192-10239           79      0.08%     99.55% # Reads before turning the bus around for writes (Count)
system.mem_ctrl.rdPerTurnAround::10240-12287           96      0.09%     99.64% # Reads before turning the bus around for writes (Count)
system.mem_ctrl.rdPerTurnAround::12288-14335          116      0.11%     99.76% # Reads before turning the bus around for writes (Count)
system.mem_ctrl.rdPerTurnAround::14336-16383           94      0.09%     99.85% # Reads before turning the bus around for writes (Count)
system.mem_ctrl.rdPerTurnAround::16384-18431           88      0.09%     99.93% # Reads before turning the bus around for writes (Count)
system.mem_ctrl.rdPerTurnAround::18432-20479           39      0.04%     99.97% # Reads before turning the bus around for writes (Count)
system.mem_ctrl.rdPerTurnAround::20480-22527           14      0.01%     99.98% # Reads before turning the bus around for writes (Count)
system.mem_ctrl.rdPerTurnAround::22528-24575            6      0.01%     99.99% # Reads before turning the bus around for writes (Count)
system.mem_ctrl.rdPerTurnAround::24576-26623            2      0.00%     99.99% # Reads before turning the bus around for writes (Count)
system.mem_ctrl.rdPerTurnAround::26624-28671            4      0.00%    100.00% # Reads before turning the bus around for writes (Count)
system.mem_ctrl.rdPerTurnAround::32768-34815            1      0.00%    100.00% # Reads before turning the bus around for writes (Count)
system.mem_ctrl.rdPerTurnAround::34816-36863            2      0.00%    100.00% # Reads before turning the bus around for writes (Count)
system.mem_ctrl.rdPerTurnAround::38912-40959            1      0.00%    100.00% # Reads before turning the bus around for writes (Count)
system.mem_ctrl.rdPerTurnAround::total         103181                       # Reads before turning the bus around for writes (Count)
[...]
system.mem_ctrl.dram.bwInstRead::total       41554575                       # Instruction read bandwidth from this memory ((Byte/Second))
system.mem_ctrl.dram.bwWrite::writebacks      8322587                       # Write bandwidth from this memory ((Byte/Second))
system.mem_ctrl.dram.bwWrite::total           8322587                       # Write bandwidth from this memory ((Byte/Second))
system.mem_ctrl.dram.bwTotal::writebacks      8322587                       # Total bandwidth to/from this memory ((Byte/Second))
system.mem_ctrl.dram.bwTotal::cpu.inst       41554575                       # Total bandwidth to/from this memory ((Byte/Second))
system.mem_ctrl.dram.bwTotal::cpu.data       20254208                       # Total bandwidth to/from this memory ((Byte/Second))
system.mem_ctrl.dram.bwTotal::cpu.l1d.prefetcher     27833751                       # Total bandwidth to/from this memory ((Byte/Second))
system.mem_ctrl.dram.bwTotal::cpu.l1i.prefetcher    120572600                       # Total bandwidth to/from this memory ((Byte/Second))
system.mem_ctrl.dram.bwTotal::total         218537723                       # Total bandwidth to/from this memory ((Byte/Second))
system.mem_ctrl.dram.readBursts              16952580                       # Number of DRAM read bursts (Count)
system.mem_ctrl.dram.writeBursts               268642                       # Number of DRAM write bursts (Count)
system.mem_ctrl.dram.perBankRdBursts::0        260846                       # Per bank write bursts (Count)
system.mem_ctrl.dram.perBankRdBursts::1        227751                       # Per bank write bursts (Count)
system.mem_ctrl.dram.perBankRdBursts::2        171704                       # Per bank write bursts (Count)
system.mem_ctrl.dram.perBankRdBursts::3       1591921                       # Per bank write bursts (Count)
system.mem_ctrl.dram.perBankRdBursts::4        123112                       # Per bank write bursts (Count)
system.mem_ctrl.dram.perBankRdBursts::5       2329190                       # Per bank write bursts (Count)
system.mem_ctrl.dram.perBankRdBursts::6       2416029                       # Per bank write bursts (Count)
system.mem_ctrl.dram.perBankRdBursts::7       1101146                       # Per bank write bursts (Count)
system.mem_ctrl.dram.perBankRdBursts::8        651680                       # Per bank write bursts (Count)
system.mem_ctrl.dram.perBankRdBursts::9        120770                       # Per bank write bursts (Count)
system.mem_ctrl.dram.perBankRdBursts::10       118528                       # Per bank write bursts (Count)
system.mem_ctrl.dram.perBankRdBursts::11       118267                       # Per bank write bursts (Count)
system.mem_ctrl.dram.perBankRdBursts::12      4046763                       # Per bank write bursts (Count)
system.mem_ctrl.dram.perBankRdBursts::13       319893                       # Per bank write bursts (Count)
system.mem_ctrl.dram.perBankRdBursts::14      2088432                       # Per bank write bursts (Count)
system.mem_ctrl.dram.perBankRdBursts::15      1266548                       # Per bank write bursts (Count)
system.mem_ctrl.dram.perBankWrBursts::0         13412                       # Per bank write bursts (Count)
system.mem_ctrl.dram.perBankWrBursts::1         22040                       # Per bank write bursts (Count)
system.mem_ctrl.dram.perBankWrBursts::2         13354                       # Per bank write bursts (Count)
system.mem_ctrl.dram.perBankWrBursts::3         15907                       # Per bank write bursts (Count)
system.mem_ctrl.dram.perBankWrBursts::4         13322                       # Per bank write bursts (Count)
system.mem_ctrl.dram.perBankWrBursts::5         56631                       # Per bank write bursts (Count)
system.mem_ctrl.dram.perBankWrBursts::6         13464                       # Per bank write bursts (Count)
system.mem_ctrl.dram.perBankWrBursts::7         13177                       # Per bank write bursts (Count)
system.mem_ctrl.dram.perBankWrBursts::8         13187                       # Per bank write bursts (Count)
system.mem_ctrl.dram.perBankWrBursts::9         13581                       # Per bank write bursts (Count)
system.mem_ctrl.dram.perBankWrBursts::10        13214                       # Per bank write bursts (Count)
system.mem_ctrl.dram.perBankWrBursts::11        13213                       # Per bank write bursts (Count)
system.mem_ctrl.dram.perBankWrBursts::12        13186                       # Per bank write bursts (Count)
system.mem_ctrl.dram.perBankWrBursts::13        13939                       # Per bank write bursts (Count)
system.mem_ctrl.dram.perBankWrBursts::14        13597                       # Per bank write bursts (Count)
system.mem_ctrl.dram.perBankWrBursts::15        13418                       # Per bank write bursts (Count)
system.mem_ctrl.dram.totQLat             187631369484                       # Total ticks spent queuing (Tick)
system.mem_ctrl.dram.totBusLat            84762900000                       # Total ticks spent in databus transfers (Tick)
system.mem_ctrl.dram.totMemAccLat        505492244484                       # Total ticks spent from burst creation until serviced by the DRAM (Tick)
system.mem_ctrl.dram.avgQLat                 11068.01                       # Average queueing delay per DRAM burst ((Tick/Count))
system.mem_ctrl.dram.avgBusLat                5000.00                       # Average bus latency per DRAM burst ((Tick/Count))
system.mem_ctrl.dram.avgMemAccLat            29818.01                       # Average memory access latency per DRAM burst ((Tick/Count))
system.mem_ctrl.dram.readRowHits             13043050                       # Number of row buffer hits during reads (Count)
system.mem_ctrl.dram.writeRowHits              242503                       # Number of row buffer hits during writes (Count)
system.mem_ctrl.dram.readRowHitRate             76.94                       # Row buffer hit rate for reads (Ratio)
system.mem_ctrl.dram.writeRowHitRate            90.27                       # Row buffer hit rate for writes (Ratio)
system.mem_ctrl.dram.bytesPerActivate::samples      3935668                       # Bytes accessed per row activation (Byte)
system.mem_ctrl.dram.bytesPerActivate::mean   280.043394                       # Bytes accessed per row activation (Byte)
system.mem_ctrl.dram.bytesPerActivate::gmean   220.739988                       # Bytes accessed per row activation (Byte)
system.mem_ctrl.dram.bytesPerActivate::stdev   198.185131                       # Bytes accessed per row activation (Byte)
system.mem_ctrl.dram.bytesPerActivate::0-127       568005     14.43%     14.43% # Bytes accessed per row activation (Byte)
system.mem_ctrl.dram.bytesPerActivate::128-255      1695319     43.08%     57.51% # Bytes accessed per row activation (Byte)
system.mem_ctrl.dram.bytesPerActivate::256-383       493937     12.55%     70.06% # Bytes accessed per row activation (Byte)
system.mem_ctrl.dram.bytesPerActivate::384-511       690027     17.53%     87.59% # Bytes accessed per row activation (Byte)
system.mem_ctrl.dram.bytesPerActivate::512-639       209286      5.32%     92.91% # Bytes accessed per row activation (Byte)
system.mem_ctrl.dram.bytesPerActivate::640-767        70533      1.79%     94.70% # Bytes accessed per row activation (Byte)
system.mem_ctrl.dram.bytesPerActivate::768-895       130491      3.32%     98.02% # Bytes accessed per row activation (Byte)
system.mem_ctrl.dram.bytesPerActivate::896-1023        44258      1.12%     99.14% # Bytes accessed per row activation (Byte)
system.mem_ctrl.dram.bytesPerActivate::1024-1151        33812      0.86%    100.00% # Bytes accessed per row activation (Byte)
system.mem_ctrl.dram.bytesPerActivate::total      3935668                       # Bytes accessed per row activation (Byte)
system.mem_ctrl.dram.dramBytesRead         1084965120                       # Total bytes read (Byte)
system.mem_ctrl.dram.dramBytesWritten        17193088                       # Total bytes written (Byte)
system.mem_ctrl.dram.avgRdBW               204.333071                       # Average DRAM read bandwidth in MiBytes/s ((Byte/Second))
system.mem_ctrl.dram.avgWrBW                 3.237999                       # Average DRAM write bandwidth in MiBytes/s ((Byte/Second))
system.mem_ctrl.dram.peakBW                  12800.00                       # Theoretical peak bandwidth in MiByte/s ((Byte/Second))
system.mem_ctrl.dram.busUtil                     1.62                       # Data bus utilization in percentage (Ratio)
system.mem_ctrl.dram.busUtilRead                 1.60                       # Data bus utilization in percentage for reads (Ratio)
system.mem_ctrl.dram.busUtilWrite                0.03                       # Data bus utilization in percentage for writes (Ratio)
system.mem_ctrl.dram.pageHitRate                77.15                       # Row buffer hit rate, read and write combined (Ratio)
system.mem_ctrl.dram.power_state.pwrStateResidencyTicks::UNDEFINED 5309787185335                       # Cumulative time (in ticks) in various power states (Tick)
system.mem_ctrl.dram.rank0.actEnergy      15231454980                       # Energy for activate commands per rank (pJ) (Joule)
system.mem_ctrl.dram.rank0.preEnergy       8095702725                       # Energy for precharge commands per rank (pJ) (Joule)
system.mem_ctrl.dram.rank0.readEnergy     58702930860                       # Energy for read commands per rank (pJ) (Joule)
system.mem_ctrl.dram.rank0.writeEnergy      842022540                       # Energy for write commands per rank (pJ) (Joule)
system.mem_ctrl.dram.rank0.refreshEnergy 419150060160.000061                       # Energy for refresh commands per rank (pJ) (Joule)
system.mem_ctrl.dram.rank0.actBackEnergy 1557503395290                       # Energy for active background per rank (pJ) (Joule)
system.mem_ctrl.dram.rank0.preBackEnergy 727376472480                       # Energy for precharge background per rank (pJ) (Joule)
system.mem_ctrl.dram.rank0.actPowerDownEnergy            0                       # Energy for active power-down per rank (pJ) (Joule)
system.mem_ctrl.dram.rank0.prePowerDownEnergy            0                       # Energy for precharge power-down per rank (pJ) (Joule)
system.mem_ctrl.dram.rank0.selfRefreshEnergy            0                       # Energy for self refresh per rank (pJ) (Joule)
system.mem_ctrl.dram.rank0.totalEnergy   2786902039035                       # Total energy per rank (pJ) (Joule)
system.mem_ctrl.dram.rank0.averagePower    524.861344                       # Core power per rank (mW) (Watt)
system.mem_ctrl.dram.rank0.totalIdleTime            0                       # Total Idle time Per DRAM Rank (Tick)
system.mem_ctrl.dram.rank0.pwrStateTime::IDLE 1875836767659                       # Time in different power states (Tick)
system.mem_ctrl.dram.rank0.pwrStateTime::REF 177305440000                       # Time in different power states (Tick)
system.mem_ctrl.dram.rank0.pwrStateTime::SREF            0                       # Time in different power states (Tick)
system.mem_ctrl.dram.rank0.pwrStateTime::PRE_PDN            0                       # Time in different power states (Tick)
system.mem_ctrl.dram.rank0.pwrStateTime::ACT 3256644977676                       # Time in different power states (Tick)
system.mem_ctrl.dram.rank0.pwrStateTime::ACT_PDN            0                       # Time in different power states (Tick)
system.mem_ctrl.dram.rank1.actEnergy      12869221680                       # Energy for activate commands per rank (pJ) (Joule)
system.mem_ctrl.dram.rank1.preEnergy       6840157335                       # Energy for precharge commands per rank (pJ) (Joule)
system.mem_ctrl.dram.rank1.readEnergy     62338490340                       # Energy for read commands per rank (pJ) (Joule)
system.mem_ctrl.dram.rank1.writeEnergy      560288700                       # Energy for write commands per rank (pJ) (Joule)
system.mem_ctrl.dram.rank1.refreshEnergy 419150060160.000061                       # Energy for refresh commands per rank (pJ) (Joule)
system.mem_ctrl.dram.rank1.actBackEnergy 1635070062900                       # Energy for active background per rank (pJ) (Joule)
system.mem_ctrl.dram.rank1.preBackEnergy 662057173440                       # Energy for precharge background per rank (pJ) (Joule)
system.mem_ctrl.dram.rank1.actPowerDownEnergy            0                       # Energy for active power-down per rank (pJ) (Joule)
system.mem_ctrl.dram.rank1.prePowerDownEnergy            0                       # Energy for precharge power-down per rank (pJ) (Joule)
system.mem_ctrl.dram.rank1.selfRefreshEnergy            0                       # Energy for self refresh per rank (pJ) (Joule)
system.mem_ctrl.dram.rank1.totalEnergy   2798885454555                       # Total energy per rank (pJ) (Joule)
system.mem_ctrl.dram.rank1.averagePower    527.118198                       # Core power per rank (mW) (Watt)
system.mem_ctrl.dram.rank1.totalIdleTime            0                       # Total Idle time Per DRAM Rank (Tick)
system.mem_ctrl.dram.rank1.pwrStateTime::IDLE 1704952866597                       # Time in different power states (Tick)
system.mem_ctrl.dram.rank1.pwrStateTime::REF 177305440000                       # Time in different power states (Tick)
system.mem_ctrl.dram.rank1.pwrStateTime::SREF            0                       # Time in different power states (Tick)
system.mem_ctrl.dram.rank1.pwrStateTime::PRE_PDN            0                       # Time in different power states (Tick)
system.mem_ctrl.dram.rank1.pwrStateTime::ACT 3427528878738                       # Time in different power states (Tick)
system.mem_ctrl.dram.rank1.pwrStateTime::ACT_PDN            0                       # Time in different power states (Tick)
system.mem_ctrl.power_state.pwrStateResidencyTicks::UNDEFINED 5309787185335                       # Cumulative time (in ticks) in various power states (Tick)
system.membus.transDist::ReadResp            17193561                       # Transaction distribution (Count)
system.membus.transDist::WritebackDirty        690487                       # Transaction distribution (Count)
system.membus.transDist::CleanEvict          16750102                       # Transaction distribution (Count)
system.membus.transDist::ReadExReq             247028                       # Transaction distribution (Count)
system.membus.transDist::ReadExResp            247028                       # Transaction distribution (Count)
system.membus.transDist::ReadSharedReq       17193560                       # Transaction distribution (Count)
system.membus.pktCount_system.cpu.l1d.mem_side_port::system.mem_ctrl.port     11968912                       # Packet count per connected requestor and responder (Count)
system.membus.pktCount_system.cpu.l1d.mem_side_port::total     11968912                       # Packet count per connected requestor and responder (Count)
system.membus.pktCount_system.cpu.l1i.mem_side_port::system.mem_ctrl.port     40352854                       # Packet count per connected requestor and responder (Count)
system.membus.pktCount_system.cpu.l1i.mem_side_port::total     40352854                       # Packet count per connected requestor and responder (Count)
system.membus.pktCount::total                52321766                       # Packet count per connected requestor and responder (Count)
system.membus.pktSize_system.cpu.l1d.mem_side_port::system.mem_ctrl.port    299527936                       # Cumulative packet size per connected requestor and responder (Byte)
system.membus.pktSize_system.cpu.l1d.mem_side_port::total    299527936                       # Cumulative packet size per connected requestor and responder (Byte)
system.membus.pktSize_system.cpu.l1i.mem_side_port::system.mem_ctrl.port    860860928                       # Cumulative packet size per connected requestor and responder (Byte)
system.membus.pktSize_system.cpu.l1i.mem_side_port::total    860860928                       # Cumulative packet size per connected requestor and responder (Byte)
system.membus.pktSize::total               1160388864                       # Cumulative packet size per connected requestor and responder (Byte)
system.membus.snoops                                0                       # Total snoops (Count)
system.membus.snoopTraffic                          0                       # Total snoop traffic (Byte)
system.membus.snoopFanout::samples           17440588                       # Request fanout histogram (Count)
system.membus.snoopFanout::mean                     0                       # Request fanout histogram (Count)
system.membus.snoopFanout::stdev                    0                       # Request fanout histogram (Count)
system.membus.snoopFanout::underflows               0      0.00%      0.00% # Request fanout histogram (Count)
system.membus.snoopFanout::0                 17440588    100.00%    100.00% # Request fanout histogram (Count)
system.membus.snoopFanout::1                        0      0.00%    100.00% # Request fanout histogram (Count)
system.membus.snoopFanout::2                        0      0.00%    100.00% # Request fanout histogram (Count)
system.membus.snoopFanout::overflows                0      0.00%    100.00% # Request fanout histogram (Count)
system.membus.snoopFanout::min_value                0                       # Request fanout histogram (Count)
system.membus.snoopFanout::max_value                0                       # Request fanout histogram (Count)
system.membus.snoopFanout::total             17440588                       # Request fanout histogram (Count)
system.membus.power_state.pwrStateResidencyTicks::UNDEFINED 5309787185335                       # Cumulative time (in ticks) in various power states (Tick)
system.membus.reqLayer2.occupancy        535069294609                       # Layer occupancy (ticks) (Tick)
system.membus.reqLayer2.utilization               0.1                       # Layer utilization (Ratio)
system.membus.respLayer2.occupancy       269072595562                       # Layer occupancy (ticks) (Tick)
system.membus.respLayer2.utilization              0.1                       # Layer utilization (Ratio)
system.membus.respLayer3.occupancy       904927686868                       # Layer occupancy (ticks) (Tick)
system.membus.respLayer3.utilization              0.2                       # Layer utilization (Ratio)
system.membus.snoop_filter.totRequests       34881177                       # Total number of requests made to the snoop filter. (Count)
system.membus.snoop_filter.hitSingleRequests     17440589                       # Number of requests hitting in the snoop filter with a single holder of the requested data. (Count)
system.membus.snoop_filter.hitMultiRequests            0                       # Number of requests hitting in the snoop filter with multiple (>1) holders of the requested data. (Count)
system.membus.snoop_filter.totSnoops                0                       # Total number of snoops made to the snoop filter. (Count)
system.membus.snoop_filter.hitSingleSnoops            0                       # Number of snoops hitting in the snoop filter with a single holder of the requested data. (Count)
system.membus.snoop_filter.hitMultiSnoops            0                       # Number of snoops hitting in the snoop filter with multiple (>1) holders of the requested data. (Count)
system.workload.inst.arm                            0                       # number of arm instructions executed (Count)
system.workload.inst.quiesce                        0                       # number of quiesce instructions executed (Count)

---------- End Simulation Statistics   ----------
