
---------- Begin Simulation Statistics ----------
simSeconds                                   1.424661                       # Number of seconds simulated (Second)
simTicks                                 1424660769257                       # Number of ticks simulated (Tick)
finalTick                                1424660769257                       # Number of ticks from beginning of simulation (restored from checkpoints and never reset) (Tick)
simFreq                                  1000000000000                       # The number of ticks per simulated second ((Tick/Second))
hostSeconds                                    693.40                       # Real time elapsed on the host (Second)
hostTickRate                               2054591193                       # The number of ticks simulated per host second (ticks/s) ((Tick/Second))
hostMemory                                    8657096                       # Number of bytes of host memory used (Byte)
simInsts                                    146325112                       # Number of instructions simulated (Count)
simOps                                      256945173                       # Number of ops (including micro ops) simulated (Count)
hostInstRate                                   211024                       # Simulator instruction rate (inst/s) ((Count/Second))
hostOpRate                                     370556                       # Simulator op (including micro ops) rate (op/s) ((Count/Second))
system.clk_domain.clock                         13333                       # Clock period in ticks (Tick)
system.clk_domain.voltage_domain.voltage            1                       # Voltage in Volts (Volt)
system.cpu.numCycles                        106852230                       # Number of cpu cycles simulated (Cycle)
system.cpu.cpi                               0.730238                       # CPI: cycles per instruction (core level) ((Cycle/Count))
system.cpu.ipc                               1.369416                       # IPC: instructions per cycle (core level) ((Count/Cycle))
system.cpu.numWorkItemsStarted                      0                       # Number of work items this cpu started (Count)
system.cpu.numWorkItemsCompleted                    0                       # Number of work items this cpu completed (Count)
system.cpu.instsAdded                       335684745                       # Number of instructions added to the IQ (excludes non-spec) (Count)
system.cpu.nonSpecInstsAdded                  2172178                       # Number of non-speculative instructions added to the IQ (Count)
system.cpu.instsIssued                      310978979                       # Number of instructions issued (Count)
system.cpu.squashedInstsIssued                 900370                       # Number of squashed instructions issued (Count)
system.cpu.squashedInstsExamined             80911739                       # Number of squashed instructions iterated over during squash; mainly for profiling (Count)
system.cpu.squashedOperandsExamined         143072079                       # Number of squashed operands that are examined and possibly removed from graph (Count)
system.cpu.squashedNonSpecRemoved              824653                       # Number of squashed non-spec instructions that were removed (Count)
system.cpu.numIssuedDist::samples           106840398                       # Number of insts issued each cycle (Count)
system.cpu.numIssuedDist::mean               2.910687                       # Number of insts issued each cycle (Count)
system.cpu.numIssuedDist::stdev              2.735526                       # Number of insts issued each cycle (Count)
system.cpu.numIssuedDist::underflows                0      0.00%      0.00% # Number of insts issued each cycle (Count)
system.cpu.numIssuedDist::0                  35354919     33.09%     33.09% # Number of insts issued each cycle (Count)
system.cpu.numIssuedDist::1                  10620857      9.94%     43.03% # Number of insts issued each cycle (Count)
system.cpu.numIssuedDist::2                   8223484      7.70%     50.73% # Number of insts issued each cycle (Count)
system.cpu.numIssuedDist::3                   8630177      8.08%     58.81% # Number of insts issued each cycle (Count)
system.cpu.numIssuedDist::4                   8710601      8.15%     66.96% # Number of insts issued each cycle (Count)
system.cpu.numIssuedDist::5                   8002419      7.49%     74.45% # Number of insts issued each cycle (Count)
system.cpu.numIssuedDist::6                  12618228     11.81%     86.26% # Number of insts issued each cycle (Count)
system.cpu.numIssuedDist::7                   9980948      9.34%     95.60% # Number of insts issued each cycle (Count)
system.cpu.numIssuedDist::8                   4698765      4.40%    100.00% # Number of insts issued each cycle (Count)
system.cpu.numIssuedDist::overflows                 0      0.00%    100.00% # Number of insts issued each cycle (Count)
system.cpu.numIssuedDist::min_value                 0                       # Number of insts issued each cycle (Count)
system.cpu.numIssuedDist::max_value                 8                       # Number of insts issued each cycle (Count)
system.cpu.numIssuedDist::total             106840398                       # Number of insts issued each cycle (Count)
system.cpu.statFuBusy::No_OpClass                   0      0.00%      0.00% # attempts to use FU when none available (Count)
system.cpu.statFuBusy::IntAlu                 8975463     84.75%     84.75% # attempts to use FU when none available (Count)
system.cpu.statFuBusy::IntMult                      0      0.00%     84.75% # attempts to use FU when none available (Count)
system.cpu.statFuBusy::IntDiv                       0      0.00%     84.75% # attempts to use FU when none available (Count)
system.cpu.statFuBusy::FloatAdd                     0      0.00%     84.75% # attempts to use FU when none available (Count)
system.cpu.statFuBusy::FloatCmp                     0      0.00%     84.75% # attempts to use FU when none available (Count)
system.cpu.statFuBusy::FloatCvt                     0      0.00%     84.75% # attempts to use FU when none available (Count)
system.cpu.statFuBusy::FloatMult                    0      0.00%     84.75% # attempts to use FU when none available (Count)
system.cpu.statFuBusy::FloatMultAcc                 0      0.00%     84.75% # attempts to use FU when none available (Count)
system.cpu.statFuBusy::FloatDiv                     0      0.00%     84.75% # attempts to use FU when none available (Count)
system.cpu.statFuBusy::FloatMisc                    0      0.00%     84.75% # attempts to use FU when none available (Count)
system.cpu.statFuBusy::FloatSqrt                    0      0.00%     84.75% # attempts to use FU when none available (Count)
system.cpu.statFuBusy::SimdAdd                     16      0.00%     84.75% # attempts to use FU when none available (Count)
system.cpu.statFuBusy::SimdAddAcc                   0      0.00%     84.75% # attempts to use FU when none available (Count)
system.cpu.statFuBusy::SimdAlu                    155      0.00%     84.75% # attempts to use FU when none available (Count)
system.cpu.statFuBusy::SimdCmp                      1      0.00%     84.75% # attempts to use FU when none available (Count)
system.cpu.statFuBusy::SimdCvt                    187      0.00%     84.75% # attempts to use FU when none available (Count)
system.cpu.statFuBusy::SimdMisc                    39      0.00%     84.75% # attempts to use FU when none available (Count)
system.cpu.statFuBusy::SimdMult                     0      0.00%     84.75% # attempts to use FU when none available (Count)
system.cpu.statFuBusy::SimdMultAcc                  0      0.00%     84.75% # attempts to use FU when none available (Count)
system.cpu.statFuBusy::SimdMatMultAcc               0      0.00%     84.75% # attempts to use FU when none available (Count)
system.cpu.statFuBusy::SimdShift                   29      0.00%     84.75% # attempts to use FU when none available (Count)
system.cpu.statFuBusy::SimdShiftAcc                 0      0.00%     84.75% # attempts to use FU when none available (Count)
system.cpu.statFuBusy::SimdDiv                      0      0.00%     84.75% # attempts to use FU when none available (Count)
system.cpu.statFuBusy::SimdSqrt                     0      0.00%     84.75% # attempts to use FU when none available (Count)
system.cpu.statFuBusy::SimdFloatAdd                 0      0.00%     84.75% # attempts to use FU when none available (Count)
system.cpu.statFuBusy::SimdFloatAlu                 0      0.00%     84.75% # attempts to use FU when none available (Count)
system.cpu.statFuBusy::SimdFloatCmp                 0      0.00%     84.75% # attempts to use FU when none available (Count)
system.cpu.statFuBusy::SimdFloatCvt                 0      0.00%     84.75% # attempts to use FU when none available (Count)
system.cpu.statFuBusy::SimdFloatDiv                 0      0.00%     84.75% # attempts to use FU when none available (Count)
system.cpu.statFuBusy::SimdFloatMisc                0      0.00%     84.75% # attempts to use FU when none available (Count)
system.cpu.statFuBusy::SimdFloatMult                0      0.00%     84.75% # attempts to use FU when none available (Count)
system.cpu.statFuBusy::SimdFloatMultAcc             0      0.00%     84.75% # attempts to use FU when none available (Count)
system.cpu.statFuBusy::SimdFloatMatMultAcc            0      0.00%     84.75% # attempts to use FU when none available (Count)
system.cpu.statFuBusy::SimdFloatSqrt                0      0.00%     84.75% # attempts to use FU when none available (Count)
system.cpu.statFuBusy::SimdReduceAdd                0      0.00%     84.75% # attempts to use FU when none available (Count)
system.cpu.statFuBusy::SimdReduceAlu                0      0.00%     84.75% # attempts to use FU when none available (Count)
system.cpu.statFuBusy::SimdReduceCmp                0      0.00%     84.75% # attempts to use FU when none available (Count)
system.cpu.statFuBusy::SimdFloatReduceAdd            0      0.00%     84.75% # attempts to use FU when none available (Count)
system.cpu.statFuBusy::SimdFloatReduceCmp            0      0.00%     84.75% # attempts to use FU when none available (Count)
system.cpu.statFuBusy::SimdAes                      0      0.00%     84.75% # attempts to use FU when none available (Count)
system.cpu.statFuBusy::SimdAesMix                   0      0.00%     84.75% # attempts to use FU when none available (Count)
system.cpu.statFuBusy::SimdSha1Hash                 0      0.00%     84.75% # attempts to use FU when none available (Count)
system.cpu.statFuBusy::SimdSha1Hash2                0      0.00%     84.75% # attempts to use FU when none available (Count)
system.cpu.statFuBusy::SimdSha256Hash               0      0.00%     84.75% # attempts to use FU when none available (Count)
system.cpu.statFuBusy::SimdSha256Hash2              0      0.00%     84.75% # attempts to use FU when none available (Count)
system.cpu.statFuBusy::SimdShaSigma2                0      0.00%     84.75% # attempts to use FU when none available (Count)
system.cpu.statFuBusy::SimdShaSigma3                0      0.00%     84.75% # attempts to use FU when none available (Count)
system.cpu.statFuBusy::SimdPredAlu                  0      0.00%     84.75% # attempts to use FU when none available (Count)
system.cpu.statFuBusy::Matrix                       0      0.00%     84.75% # attempts to use FU when none available (Count)
system.cpu.statFuBusy::MatrixMov                    0      0.00%     84.75% # attempts to use FU when none available (Count)
system.cpu.statFuBusy::MatrixOP                     0      0.00%     84.75% # attempts to use FU when none available (Count)
system.cpu.statFuBusy::MemRead                1071180     10.11%     94.87% # attempts to use FU when none available (Count)
system.cpu.statFuBusy::MemWrite                527178      4.98%     99.84% # attempts to use FU when none available (Count)
system.cpu.statFuBusy::FloatMemRead               942      0.01%     99.85% # attempts to use FU when none available (Count)
system.cpu.statFuBusy::FloatMemWrite            15607      0.15%    100.00% # attempts to use FU when none available (Count)
system.cpu.statFuBusy::IprAccess                    0      0.00%    100.00% # attempts to use FU when none available (Count)
system.cpu.statFuBusy::InstPrefetch                 0      0.00%    100.00% # attempts to use FU when none available (Count)
system.cpu.statFuBusy::SimdUnitStrideLoad            0      0.00%    100.00% # attempts to use FU when none available (Count)
system.cpu.statFuBusy::SimdUnitStrideStore            0      0.00%    100.00% # attempts to use FU when none available (Count)
system.cpu.statFuBusy::SimdUnitStrideMaskLoad            0      0.00%    100.00% # attempts to use FU when none available (Count)
system.cpu.statFuBusy::SimdUnitStrideMaskStore            0      0.00%    100.00% # attempts to use FU when none available (Count)
system.cpu.statFuBusy::SimdStridedLoad              0      0.00%    100.00% # attempts to use FU when none available (Count)
system.cpu.statFuBusy::SimdStridedStore             0      0.00%    100.00% # attempts to use FU when none available (Count)
system.cpu.statFuBusy::SimdIndexedLoad              0      0.00%    100.00% # attempts to use FU when none available (Count)
system.cpu.statFuBusy::SimdIndexedStore             0      0.00%    100.00% # attempts to use FU when none available (Count)
system.cpu.statFuBusy::SimdWholeRegisterLoad            0      0.00%    100.00% # attempts to use FU when none available (Count)
system.cpu.statFuBusy::SimdWholeRegisterStore            0      0.00%    100.00% # attempts to use FU when none available (Count)
system.cpu.statFuBusy::SimdUnitStrideFaultOnlyFirstLoad            0      0.00%    100.00% # attempts to use FU when none available (Count)
system.cpu.statFuBusy::SimdUnitStrideSegmentedLoad            0      0.00%    100.00% # attempts to use FU when none available (Count)
system.cpu.statFuBusy::SimdUnitStrideSegmentedStore            0      0.00%    100.00% # attempts to use FU when none available (Count)
system.cpu.statFuBusy::SimdExt                      0      0.00%    100.00% # attempts to use FU when none available (Count)
system.cpu.statFuBusy::SimdFloatExt                 0      0.00%    100.00% # attempts to use FU when none available (Count)
system.cpu.statFuBusy::SimdConfig                   0      0.00%    100.00% # attempts to use FU when none available (Count)
system.cpu.statIssuedInstType_0::No_OpClass       995888      0.32%      0.32% # Number of instructions issued per FU type, per thread (Count)
system.cpu.statIssuedInstType_0::IntAlu     242589787     78.01%     78.33% # Number of instructions issued per FU type, per thread (Count)
system.cpu.statIssuedInstType_0::IntMult       752355      0.24%     78.57% # Number of instructions issued per FU type, per thread (Count)
system.cpu.statIssuedInstType_0::IntDiv         49913      0.02%     78.59% # Number of instructions issued per FU type, per thread (Count)
system.cpu.statIssuedInstType_0::FloatAdd        14276      0.00%     78.59% # Number of instructions issued per FU type, per thread (Count)
system.cpu.statIssuedInstType_0::FloatCmp            0      0.00%     78.59% # Number of instructions issued per FU type, per thread (Count)
system.cpu.statIssuedInstType_0::FloatCvt         1852      0.00%     78.59% # Number of instructions issued per FU type, per thread (Count)
system.cpu.statIssuedInstType_0::FloatMult            0      0.00%     78.59% # Number of instructions issued per FU type, per thread (Count)
system.cpu.statIssuedInstType_0::FloatMultAcc            0      0.00%     78.59% # Number of instructions issued per FU type, per thread (Count)
system.cpu.statIssuedInstType_0::FloatDiv            0      0.00%     78.59% # Number of instructions issued per FU type, per thread (Count)
system.cpu.statIssuedInstType_0::FloatMisc            0      0.00%     78.59% # Number of instructions issued per FU type, per thread (Count)
system.cpu.statIssuedInstType_0::FloatSqrt            0      0.00%     78.59% # Number of instructions issued per FU type, per thread (Count)
system.cpu.statIssuedInstType_0::SimdAdd         7789      0.00%     78.59% # Number of instructions issued per FU type, per thread (Count)
system.cpu.statIssuedInstType_0::SimdAddAcc            0      0.00%     78.59% # Number of instructions issued per FU type, per thread (Count)
system.cpu.statIssuedInstType_0::SimdAlu        18957      0.01%     78.60% # Number of instructions issued per FU type, per thread (Count)
system.cpu.statIssuedInstType_0::SimdCmp           33      0.00%     78.60% # Number of instructions issued per FU type, per thread (Count)
system.cpu.statIssuedInstType_0::SimdCvt        16931      0.01%     78.61% # Number of instructions issued per FU type, per thread (Count)
system.cpu.statIssuedInstType_0::SimdMisc        45518      0.01%     78.62% # Number of instructions issued per FU type, per thread (Count)
system.cpu.statIssuedInstType_0::SimdMult            0      0.00%     78.62% # Number of instructions issued per FU type, per thread (Count)
system.cpu.statIssuedInstType_0::SimdMultAcc            0      0.00%     78.62% # Number of instructions issued per FU type, per thread (Count)
system.cpu.statIssuedInstType_0::SimdMatMultAcc            0      0.00%     78.62% # Number of instructions issued per FU type, per thread (Count)
system.cpu.statIssuedInstType_0::SimdShift         3765      0.00%     78.62% # Number of instructions issued per FU type, per thread (Count)
system.cpu.statIssuedInstType_0::SimdShiftAcc            0      0.00%     78.62% # Number of instructions issued per FU type, per thread (Count)
system.cpu.statIssuedInstType_0::SimdDiv            0      0.00%     78.62% # Number of instructions issued per FU type, per thread (Count)
system.cpu.statIssuedInstType_0::SimdSqrt            0      0.00%     78.62% # Number of instructions issued per FU type, per thread (Count)
system.cpu.statIssuedInstType_0::SimdFloatAdd          147      0.00%     78.62% # Number of instructions issued per FU type, per thread (Count)
system.cpu.statIssuedInstType_0::SimdFloatAlu            0      0.00%     78.62% # Number of instructions issued per FU type, per thread (Count)
system.cpu.statIssuedInstType_0::SimdFloatCmp            0      0.00%     78.62% # Number of instructions issued per FU type, per thread (Count)
system.cpu.statIssuedInstType_0::SimdFloatCvt         1143      0.00%     78.62% # Number of instructions issued per FU type, per thread (Count)
system.cpu.statIssuedInstType_0::SimdFloatDiv          275      0.00%     78.62% # Number of instructions issued per FU type, per thread (Count)
system.cpu.statIssuedInstType_0::SimdFloatMisc            0      0.00%     78.62% # Number of instructions issued per FU type, per thread (Count)
system.cpu.statIssuedInstType_0::SimdFloatMult            0      0.00%     78.62% # Number of instructions issued per FU type, per thread (Count)
system.cpu.statIssuedInstType_0::SimdFloatMultAcc            0      0.00%     78.62% # Number of instructions issued per FU type, per thread (Count)
system.cpu.statIssuedInstType_0::SimdFloatMatMultAcc            0      0.00%     78.62% # Number of instructions issued per FU type, per thread (Count)
system.cpu.statIssuedInstType_0::SimdFloatSqrt            2      0.00%     78.62% # Number of instructions issued per FU type, per thread (Count)
system.cpu.statIssuedInstType_0::SimdReduceAdd            0      0.00%     78.62% # Number of instructions issued per FU type, per thread (Count)
system.cpu.statIssuedInstType_0::SimdReduceAlu            0      0.00%     78.62% # Number of instructions issued per FU type, per thread (Count)
system.cpu.statIssuedInstType_0::SimdReduceCmp            0      0.00%     78.62% # Number of instructions issued per FU type, per thread (Count)
system.cpu.statIssuedInstType_0::SimdFloatReduceAdd            0      0.00%     78.62% # Number of instructions issued per FU type, per thread (Count)
system.cpu.statIssuedInstType_0::SimdFloatReduceCmp            0      0.00%     78.62% # Number of instructions issued per FU type, per thread (Count)
system.cpu.statIssuedInstType_0::SimdAes            0      0.00%     78.62% # Number of instructions issued per FU type, per thread (Count)
system.cpu.statIssuedInstType_0::SimdAesMix            0      0.00%     78.62% # Number of instructions issued per FU type, per thread (Count)
system.cpu.statIssuedInstType_0::SimdSha1Hash            0      0.00%     78.62% # Number of instructions issued per FU type, per thread (Count)
system.cpu.statIssuedInstType_0::SimdSha1Hash2            0      0.00%     78.62% # Number of instructions issued per FU type, per thread (Count)
system.cpu.statIssuedInstType_0::SimdSha256Hash            0      0.00%     78.62% # Number of instructions issued per FU type, per thread (Count)
system.cpu.statIssuedInstType_0::SimdSha256Hash2            0      0.00%     78.62% # Number of instructions issued per FU type, per thread (Count)
system.cpu.statIssuedInstType_0::SimdShaSigma2            0      0.00%     78.62% # Number of instructions issued per FU type, per thread (Count)
system.cpu.statIssuedInstType_0::SimdShaSigma3            0      0.00%     78.62% # Number of instructions issued per FU type, per thread (Count)
system.cpu.statIssuedInstType_0::SimdPredAlu            0      0.00%     78.62% # Number of instructions issued per FU type, per thread (Count)
system.cpu.statIssuedInstType_0::Matrix             0      0.00%     78.62% # Number of instructions issued per FU type, per thread (Count)
system.cpu.statIssuedInstType_0::MatrixMov            0      0.00%     78.62% # Number of instructions issued per FU type, per thread (Count)
system.cpu.statIssuedInstType_0::MatrixOP            0      0.00%     78.62% # Number of instructions issued per FU type, per thread (Count)
system.cpu.statIssuedInstType_0::MemRead     54859733     17.64%     96.26% # Number of instructions issued per FU type, per thread (Count)
system.cpu.statIssuedInstType_0::MemWrite     11455359      3.68%     99.95% # Number of instructions issued per FU type, per thread (Count)
system.cpu.statIssuedInstType_0::FloatMemRead        27522      0.01%     99.96% # Number of instructions issued per FU type, per thread (Count)
system.cpu.statIssuedInstType_0::FloatMemWrite       137734      0.04%    100.00% # Number of instructions issued per FU type, per thread (Count)
system.cpu.statIssuedInstType_0::IprAccess            0      0.00%    100.00% # Number of instructions issued per FU type, per thread (Count)
system.cpu.statIssuedInstType_0::InstPrefetch            0      0.00%    100.00% # Number of instructions issued per FU type, per thread (Count)
system.cpu.statIssuedInstType_0::SimdUnitStrideLoad            0      0.00%    100.00% # Number of instructions issued per FU type, per thread (Count)
system.cpu.statIssuedInstType_0::SimdUnitStrideStore            0      0.00%    100.00% # Number of instructions issued per FU type, per thread (Count)
system.cpu.statIssuedInstType_0::SimdUnitStrideMaskLoad            0      0.00%    100.00% # Number of instructions issued per FU type, per thread (Count)
system.cpu.statIssuedInstType_0::SimdUnitStrideMaskStore            0      0.00%    100.00% # Number of instructions issued per FU type, per thread (Count)
system.cpu.statIssuedInstType_0::SimdStridedLoad            0      0.00%    100.00% # Number of instructions issued per FU type, per thread (Count)
system.cpu.statIssuedInstType_0::SimdStridedStore            0      0.00%    100.00% # Number of instructions issued per FU type, per thread (Count)
system.cpu.statIssuedInstType_0::SimdIndexedLoad            0      0.00%    100.00% # Number of instructions issued per FU type, per thread (Count)
system.cpu.statIssuedInstType_0::SimdIndexedStore            0      0.00%    100.00% # Number of instructions issued per FU type, per thread (Count)
system.cpu.statIssuedInstType_0::SimdWholeRegisterLoad            0      0.00%    100.00% # Number of instructions issued per FU type, per thread (Count)
system.cpu.statIssuedInstType_0::SimdWholeRegisterStore            0      0.00%    100.00% # Number of instructions issued per FU type, per thread (Count)
system.cpu.statIssuedInstType_0::SimdUnitStrideFaultOnlyFirstLoad            0      0.00%    100.00% # Number of instructions issued per FU type, per thread (Count)
system.cpu.statIssuedInstType_0::SimdUnitStrideSegmentedLoad            0      0.00%    100.00% # Number of instructions issued per FU type, per thread (Count)
system.cpu.statIssuedInstType_0::SimdUnitStrideSegmentedStore            0      0.00%    100.00% # Number of instructions issued per FU type, per thread (Count)
system.cpu.statIssuedInstType_0::SimdExt            0      0.00%    100.00% # Number of instructions issued per FU type, per thread (Count)
system.cpu.statIssuedInstType_0::SimdFloatExt            0      0.00%    100.00% # Number of instructions issued per FU type, per thread (Count)
system.cpu.statIssuedInstType_0::SimdConfig            0      0.00%    100.00% # Number of instructions issued per FU type, per thread (Count)
system.cpu.statIssuedInstType_0::total      310978979                       # Number of instructions issued per FU type, per thread (Count)
system.cpu.issueRate                         2.910365                       # Inst issue rate ((Count/Cycle))
system.cpu.fuBusy                            10590797                       # FU busy when requested (Count)
system.cpu.fuBusyRate                        0.034056                       # FU busy rate (busy events/executed inst) ((Count/Count))
system.cpu.intInstQueueReads                739700997                       # Number of integer instruction queue reads (Count)
system.cpu.intInstQueueWrites               418549286                       # Number of integer instruction queue writes (Count)
system.cpu.intInstQueueWakeupAccesses       307009620                       # Number of integer instruction queue wakeup accesses (Count)
system.cpu.fpInstQueueReads                    588526                       # Number of floating instruction queue reads (Count)
system.cpu.fpInstQueueWrites                   395499                       # Number of floating instruction queue writes (Count)
system.cpu.fpInstQueueWakeupAccesses           279046                       # Number of floating instruction queue wakeup accesses (Count)
system.cpu.vecInstQueueReads                        0                       # Number of vector instruction queue reads (Count)
system.cpu.vecInstQueueWrites                       0                       # Number of vector instruction queue writes (Count)
system.cpu.vecInstQueueWakeupAccesses               0                       # Number of vector instruction queue wakeup accesses (Count)
system.cpu.intAluAccesses                   320271411                       # Number of integer alu accesses (Count)
system.cpu.fpAluAccesses                       302477                       # Number of floating point alu accesses (Count)
system.cpu.vecAluAccesses                           0                       # Number of vector alu accesses (Count)
system.cpu.numSquashedInsts                   1896949                       # Number of squashed instructions skipped in execute (Count)
system.cpu.numSwp                                   0                       # Number of swp insts executed (Count)
system.cpu.timesIdled                            2974                       # Number of times that the entire CPU went into an idle state and unscheduled itself (Count)
system.cpu.idleCycles                           11832                       # Total number of cycles that the CPU has spent unscheduled due to idling (Cycle)
system.cpu.MemDepUnit__0.insertedLoads       59776173                       # Number of loads inserted to the mem dependence unit. (Count)
system.cpu.MemDepUnit__0.insertedStores      14018708                       # Number of stores inserted to the mem dependence unit. (Count)
system.cpu.MemDepUnit__0.conflictingLoads      9791642                       # Number of conflicting loads. (Count)
system.cpu.MemDepUnit__0.conflictingStores      3896294                       # Number of conflicting stores. (Count)
system.cpu.MemDepUnit__1.insertedLoads              0                       # Number of loads inserted to the mem dependence unit. (Count)
system.cpu.MemDepUnit__1.insertedStores             0                       # Number of stores inserted to the mem dependence unit. (Count)
system.cpu.MemDepUnit__1.conflictingLoads            0                       # Number of conflicting loads. (Count)
system.cpu.MemDepUnit__1.conflictingStores            0                       # Number of conflicting stores. (Count)
system.cpu.MemDepUnit__2.insertedLoads              0                       # Number of loads inserted to the mem dependence unit. (Count)
system.cpu.MemDepUnit__2.insertedStores             0                       # Number of stores inserted to the mem dependence unit. (Count)
system.cpu.MemDepUnit__2.conflictingLoads            0                       # Number of conflicting loads. (Count)
system.cpu.MemDepUnit__2.conflictingStores            0                       # Number of conflicting stores. (Count)
system.cpu.MemDepUnit__3.insertedLoads              0                       # Number of loads inserted to the mem dependence unit. (Count)
system.cpu.MemDepUnit__3.insertedStores             0                       # Number of stores inserted to the mem dependence unit. (Count)
system.cpu.MemDepUnit__3.conflictingLoads            0                       # Number of conflicting loads. (Count)
system.cpu.MemDepUnit__3.conflictingStores            0                       # Number of conflicting stores. (Count)
system.cpu.branchPred.lookups_0::NoBranch         2137      0.01%      0.01% # Number of BP lookups (Count)
system.cpu.branchPred.lookups_0::Return        917653      2.21%      2.22% # Number of BP lookups (Count)
system.cpu.branchPred.lookups_0::CallDirect      1004731      2.42%      4.64% # Number of BP lookups (Count)
system.cpu.branchPred.lookups_0::CallIndirect         2729      0.01%      4.65% # Number of BP lookups (Count)
system.cpu.branchPred.lookups_0::DirectCond     34848434     84.03%     88.68% # Number of BP lookups (Count)
system.cpu.branchPred.lookups_0::DirectUncond      4524501     10.91%     99.59% # Number of BP lookups (Count)
system.cpu.branchPred.lookups_0::IndirectCond            0      0.00%     99.59% # Number of BP lookups (Count)
system.cpu.branchPred.lookups_0::IndirectUncond       169061      0.41%    100.00% # Number of BP lookups (Count)
system.cpu.branchPred.lookups_0::total       41469246                       # Number of BP lookups (Count)
system.cpu.branchPred.squashes_0::NoBranch         1864      0.02%      0.02% # Number of branches that got squashed (completely removed) as an earlier branch was mispredicted. (Count)
system.cpu.branchPred.squashes_0::Return       269838      2.23%      2.24% # Number of branches that got squashed (completely removed) as an earlier branch was mispredicted. (Count)
system.cpu.branchPred.squashes_0::CallDirect       358258      2.96%      5.20% # Number of branches that got squashed (completely removed) as an earlier branch was mispredicted. (Count)
system.cpu.branchPred.squashes_0::CallIndirect         1382      0.01%      5.21% # Number of branches that got squashed (completely removed) as an earlier branch was mispredicted. (Count)
system.cpu.branchPred.squashes_0::DirectCond      9799060     80.87%     86.09% # Number of branches that got squashed (completely removed) as an earlier branch was mispredicted. (Count)
system.cpu.branchPred.squashes_0::DirectUncond      1660930     13.71%     99.79% # Number of branches that got squashed (completely removed) as an earlier branch was mispredicted. (Count)
system.cpu.branchPred.squashes_0::IndirectCond            0      0.00%     99.79% # Number of branches that got squashed (completely removed) as an earlier branch was mispredicted. (Count)
system.cpu.branchPred.squashes_0::IndirectUncond        24990      0.21%    100.00% # Number of branches that got squashed (completely removed) as an earlier branch was mispredicted. (Count)
system.cpu.branchPred.squashes_0::total      12116322                       # Number of branches that got squashed (completely removed) as an earlier branch was mispredicted. (Count)
system.cpu.branchPred.corrected_0::NoBranch          461      0.04%      0.04% # Number of branches that got corrected but not yet commited. Branches get corrected by decode or after execute. Also a branch misprediction can be detected out-of-order. Therefore, a corrected branch might not end up beeing committed in case an even earlier branch was mispredicted (Count)
system.cpu.branchPred.corrected_0::Return         3266      0.32%      0.36% # Number of branches that got corrected but not yet commited. Branches get corrected by decode or after execute. Also a branch misprediction can be detected out-of-order. Therefore, a corrected branch might not end up beeing committed in case an even earlier branch was mispredicted (Count)
system.cpu.branchPred.corrected_0::CallDirect         2976      0.29%      0.65% # Number of branches that got corrected but not yet commited. Branches get corrected by decode or after execute. Also a branch misprediction can be detected out-of-order. Therefore, a corrected branch might not end up beeing committed in case an even earlier branch was mispredicted (Count)
system.cpu.branchPred.corrected_0::CallIndirect          303      0.03%      0.68% # Number of branches that got corrected but not yet commited. Branches get corrected by decode or after execute. Also a branch misprediction can be detected out-of-order. Therefore, a corrected branch might not end up beeing committed in case an even earlier branch was mispredicted (Count)
system.cpu.branchPred.corrected_0::DirectCond      1018330     99.04%     99.72% # Number of branches that got corrected but not yet commited. Branches get corrected by decode or after execute. Also a branch misprediction can be detected out-of-order. Therefore, a corrected branch might not end up beeing committed in case an even earlier branch was mispredicted (Count)
system.cpu.branchPred.corrected_0::DirectUncond         1053      0.10%     99.82% # Number of branches that got corrected but not yet commited. Branches get corrected by decode or after execute. Also a branch misprediction can be detected out-of-order. Therefore, a corrected branch might not end up beeing committed in case an even earlier branch was mispredicted (Count)
system.cpu.branchPred.corrected_0::IndirectCond            0      0.00%     99.82% # Number of branches that got corrected but not yet commited. Branches get corrected by decode or after execute. Also a branch misprediction can be detected out-of-order. Therefore, a corrected branch might not end up beeing committed in case an even earlier branch was mispredicted (Count)
system.cpu.branchPred.corrected_0::IndirectUncond         1847      0.18%    100.00% # Number of branches that got corrected but not yet commited. Branches get corrected by decode or after execute. Also a branch misprediction can be detected out-of-order. Therefore, a corrected branch might not end up beeing committed in case an even earlier branch was mispredicted (Count)
system.cpu.branchPred.corrected_0::total      1028236                       # Number of branches that got corrected but not yet commited. Branches get corrected by decode or after execute. Also a branch misprediction can be detected out-of-order. Therefore, a corrected branch might not end up beeing committed in case an even earlier branch was mispredicted (Count)
system.cpu.branchPred.earlyResteers_0::NoBranch            0                       # Number of branches that got redirected after decode. (Count)
system.cpu.branchPred.earlyResteers_0::Return            0                       # Number of branches that got redirected after decode. (Count)
system.cpu.branchPred.earlyResteers_0::CallDirect            0                       # Number of branches that got redirected after decode. (Count)
system.cpu.branchPred.earlyResteers_0::CallIndirect            0                       # Number of branches that got redirected after decode. (Count)
system.cpu.branchPred.earlyResteers_0::DirectCond            0                       # Number of branches that got redirected after decode. (Count)
system.cpu.branchPred.earlyResteers_0::DirectUncond            0                       # Number of branches that got redirected after decode. (Count)
system.cpu.branchPred.earlyResteers_0::IndirectCond            0                       # Number of branches that got redirected after decode. (Count)
system.cpu.branchPred.earlyResteers_0::IndirectUncond            0                       # Number of branches that got redirected after decode. (Count)
system.cpu.branchPred.earlyResteers_0::total            0                       # Number of branches that got redirected after decode. (Count)
system.cpu.branchPred.committed_0::NoBranch          273      0.00%      0.00% # Number of branches finally committed  (Count)
system.cpu.branchPred.committed_0::Return       647814      2.21%      2.21% # Number of branches finally committed  (Count)
system.cpu.branchPred.committed_0::CallDirect       646472      2.20%      4.41% # Number of branches finally committed  (Count)
system.cpu.branchPred.committed_0::CallIndirect         1347      0.00%      4.41% # Number of branches finally committed  (Count)
system.cpu.branchPred.committed_0::DirectCond     25049374     85.34%     89.75% # Number of branches finally committed  (Count)
system.cpu.branchPred.committed_0::DirectUncond      2863571      9.76%     99.51% # Number of branches finally committed  (Count)
system.cpu.branchPred.committed_0::IndirectCond            0      0.00%     99.51% # Number of branches finally committed  (Count)
system.cpu.branchPred.committed_0::IndirectUncond       144071      0.49%    100.00% # Number of branches finally committed  (Count)
system.cpu.branchPred.committed_0::total     29352922                       # Number of branches finally committed  (Count)
system.cpu.branchPred.mispredicted_0::NoBranch          273      0.03%      0.03% # Number of committed branches that were mispredicted. (Count)
system.cpu.branchPred.mispredicted_0::Return         3250      0.33%      0.36% # Number of committed branches that were mispredicted. (Count)
system.cpu.branchPred.mispredicted_0::CallDirect         1784      0.18%      0.54% # Number of committed branches that were mispredicted. (Count)
system.cpu.branchPred.mispredicted_0::CallIndirect          272      0.03%      0.57% # Number of committed branches that were mispredicted. (Count)
system.cpu.branchPred.mispredicted_0::DirectCond       972000     99.20%     99.77% # Number of committed branches that were mispredicted. (Count)
system.cpu.branchPred.mispredicted_0::DirectUncond          552      0.06%     99.82% # Number of committed branches that were mispredicted. (Count)
system.cpu.branchPred.mispredicted_0::IndirectCond            0      0.00%     99.82% # Number of committed branches that were mispredicted. (Count)
system.cpu.branchPred.mispredicted_0::IndirectUncond         1734      0.18%    100.00% # Number of committed branches that were mispredicted. (Count)
system.cpu.branchPred.mispredicted_0::total       979865                       # Number of committed branches that were mispredicted. (Count)
system.cpu.branchPred.targetProvider_0::NoTarget     18945877     45.69%     45.69% # The component providing the target for taken branches (Count)
system.cpu.branchPred.targetProvider_0::BTB     21444516     51.71%     97.40% # The component providing the target for taken branches (Count)
system.cpu.branchPred.targetProvider_0::RAS       917652      2.21%     99.61% # The component providing the target for taken branches (Count)
system.cpu.branchPred.targetProvider_0::Indirect       161201      0.39%    100.00% # The component providing the target for taken branches (Count)
system.cpu.branchPred.targetProvider_0::total     41469246                       # The component providing the target for taken branches (Count)
system.cpu.branchPred.targetWrong_0::NoBranch       490862     47.84%     47.84% # Number of branches where the target was incorrect or not available at prediction time. (Count)
system.cpu.branchPred.targetWrong_0::Return       531485     51.80%     99.65% # Number of branches where the target was incorrect or not available at prediction time. (Count)
system.cpu.branchPred.targetWrong_0::CallDirect         3266      0.32%     99.96% # Number of branches where the target was incorrect or not available at prediction time. (Count)
system.cpu.branchPred.targetWrong_0::CallIndirect          365      0.04%    100.00% # Number of branches where the target was incorrect or not available at prediction time. (Count)
system.cpu.branchPred.targetWrong_0::DirectCond            0      0.00%    100.00% # Number of branches where the target was incorrect or not available at prediction time. (Count)
system.cpu.branchPred.targetWrong_0::DirectUncond            0      0.00%    100.00% # Number of branches where the target was incorrect or not available at prediction time. (Count)
system.cpu.branchPred.targetWrong_0::IndirectCond            0      0.00%    100.00% # Number of branches where the target was incorrect or not available at prediction time. (Count)
system.cpu.branchPred.targetWrong_0::IndirectUncond            0      0.00%    100.00% # Number of branches where the target was incorrect or not available at prediction time. (Count)
system.cpu.branchPred.targetWrong_0::total      1025978                       # Number of branches where the target was incorrect or not available at prediction time. (Count)
system.cpu.branchPred.condPredicted          34850571                       # Number of conditional branches predicted (Count)
system.cpu.branchPred.condPredictedTaken     15929636                       # Number of conditional branches predicted as taken (Count)
system.cpu.branchPred.condIncorrect           1028236                       # Number of conditional branches incorrect (Count)
system.cpu.branchPred.predTakenBTBMiss           5045                       # Number of branches predicted taken but missed in BTB (Count)
system.cpu.branchPred.NotTakenMispredicted       497162                       # Number branches predicted 'not taken' but turned out to be taken (Count)
system.cpu.branchPred.TakenMispredicted        531074                       # Number branches predicted taken but are actually not taken (Count)
system.cpu.branchPred.BTBLookups             41469246                       # Number of BTB lookups (Count)
system.cpu.branchPred.BTBUpdates               491285                       # Number of BTB updates (Count)
system.cpu.branchPred.BTBHits                32484648                       # Number of BTB hits (Count)
system.cpu.branchPred.BTBHitRatio            0.783343                       # BTB Hit Ratio (Ratio)
system.cpu.branchPred.BTBMispredicted            6212                       # Number BTB mispredictions. No target found or target wrong (Count)
system.cpu.branchPred.indirectLookups          171790                       # Number of indirect predictor lookups. (Count)
system.cpu.branchPred.indirectHits             161201                       # Number of indirect target hits. (Count)
system.cpu.branchPred.indirectMisses            10589                       # Number of indirect misses. (Count)
system.cpu.branchPred.indirectMispredicted            0                       # Number of mispredicted indirect branches. (Count)
system.cpu.branchPred.btb.lookups::NoBranch         2137      0.01%      0.01% # Number of BTB lookups (Count)
system.cpu.branchPred.btb.lookups::Return       917653      2.21%      2.22% # Number of BTB lookups (Count)
system.cpu.branchPred.btb.lookups::CallDirect      1004731      2.42%      4.64% # Number of BTB lookups (Count)
system.cpu.branchPred.btb.lookups::CallIndirect         2729      0.01%      4.65% # Number of BTB lookups (Count)
system.cpu.branchPred.btb.lookups::DirectCond     34848434     84.03%     88.68% # Number of BTB lookups (Count)
system.cpu.branchPred.btb.lookups::DirectUncond      4524501     10.91%     99.59% # Number of BTB lookups (Count)
system.cpu.branchPred.btb.lookups::IndirectCond            0      0.00%     99.59% # Number of BTB lookups (Count)
system.cpu.branchPred.btb.lookups::IndirectUncond       169061      0.41%    100.00% # Number of BTB lookups (Count)
system.cpu.branchPred.btb.lookups::total     41469246                       # Number of BTB lookups (Count)
system.cpu.branchPred.btb.misses::NoBranch          403      0.00%      0.00% # Number of BTB misses (Count)
system.cpu.branchPred.btb.misses::Return       917496     10.21%     10.22% # Number of BTB misses (Count)
system.cpu.branchPred.btb.misses::CallDirect         3489      0.04%     10.26% # Number of BTB misses (Count)
system.cpu.branchPred.btb.misses::CallIndirect         2729      0.03%     10.29% # Number of BTB misses (Count)
system.cpu.branchPred.btb.misses::DirectCond      7889759     87.81%     98.10% # Number of BTB misses (Count)
system.cpu.branchPred.btb.misses::DirectUncond         1661      0.02%     98.12% # Number of BTB misses (Count)
system.cpu.branchPred.btb.misses::IndirectCond            0      0.00%     98.12% # Number of BTB misses (Count)
system.cpu.branchPred.btb.misses::IndirectUncond       169061      1.88%    100.00% # Number of BTB misses (Count)
system.cpu.branchPred.btb.misses::total       8984598                       # Number of BTB misses (Count)
system.cpu.branchPred.btb.updates::NoBranch            0      0.00%      0.00% # Number of BTB updates (Count)
system.cpu.branchPred.btb.updates::Return            0      0.00%      0.00% # Number of BTB updates (Count)
system.cpu.branchPred.btb.updates::CallDirect         2976      0.61%      0.61% # Number of BTB updates (Count)
system.cpu.branchPred.btb.updates::CallIndirect            0      0.00%      0.61% # Number of BTB updates (Count)
system.cpu.branchPred.btb.updates::DirectCond       487256     99.18%     99.79% # Number of BTB updates (Count)
system.cpu.branchPred.btb.updates::DirectUncond         1053      0.21%    100.00% # Number of BTB updates (Count)
system.cpu.branchPred.btb.updates::IndirectCond            0      0.00%    100.00% # Number of BTB updates (Count)
system.cpu.branchPred.btb.updates::IndirectUncond            0      0.00%    100.00% # Number of BTB updates (Count)
system.cpu.branchPred.btb.updates::total       491285                       # Number of BTB updates (Count)
system.cpu.branchPred.btb.mispredict::NoBranch            0      0.00%      0.00% # Number of BTB mispredictions. No target found or target wrong. (Count)
system.cpu.branchPred.btb.mispredict::Return            0      0.00%      0.00% # Number of BTB mispredictions. No target found or target wrong. (Count)
system.cpu.branchPred.btb.mispredict::CallDirect         2976      0.61%      0.61% # Number of BTB mispredictions. No target found or target wrong. (Count)
system.cpu.branchPred.btb.mispredict::CallIndirect            0      0.00%      0.61% # Number of BTB mispredictions. No target found or target wrong. (Count)
system.cpu.branchPred.btb.mispredict::DirectCond       487256     99.18%     99.79% # Number of BTB mispredictions. No target found or target wrong. (Count)
system.cpu.branchPred.btb.mispredict::DirectUncond         1053      0.21%    100.00% # Number of BTB mispredictions. No target found or target wrong. (Count)
system.cpu.branchPred.btb.mispredict::IndirectCond            0      0.00%    100.00% # Number of BTB mispredictions. No target found or target wrong. (Count)
system.cpu.branchPred.btb.mispredict::IndirectUncond            0      0.00%    100.00% # Number of BTB mispredictions. No target found or target wrong. (Count)
system.cpu.branchPred.btb.mispredict::total       491285                       # Number of BTB mispredictions. No target found or target wrong. (Count)
system.cpu.branchPred.btb.power_state.pwrStateResidencyTicks::UNDEFINED 1424660769257                       # Cumulative time (in ticks) in various power states (Tick)
system.cpu.branchPred.indirectBranchPred.lookups       171790                       # Number of lookups (Count)
system.cpu.branchPred.indirectBranchPred.hits       161201                       # Number of hits of a tag (Count)
system.cpu.branchPred.indirectBranchPred.misses        10589                       # Number of misses (Count)
system.cpu.branchPred.indirectBranchPred.targetRecords         2150                       # Number of targets that where recorded/installed in the cache (Count)
system.cpu.branchPred.indirectBranchPred.indirectRecords       173940                       # Number of indirect branches/calls recorded in the indirect hist (Count)
system.cpu.branchPred.indirectBranchPred.speculativeOverflows            1                       # Number of times more than the allowed capacity for speculative branches/calls where in flight and destroy the path history (Count)
system.cpu.branchPred.ras.pushes              1277298                       # Number of times a PC was pushed onto the RAS (Count)
system.cpu.branchPred.ras.pops                1277293                       # Number of times a PC was poped from the RAS (Count)
system.cpu.branchPred.ras.squashes             629478                       # Number of times the stack operation was squashed due to wrong speculation. (Count)
system.cpu.branchPred.ras.used                 647814                       # Number of times the RAS is the provider (Count)
system.cpu.branchPred.ras.correct              644564                       # Number of times the RAS is the provider and the prediction is correct (Count)
system.cpu.branchPred.ras.incorrect              3250                       # Number of times the RAS is the provider and the prediction is wrong (Count)
system.cpu.commit.commitSquashedInsts        80796356                       # The number of squashed insts skipped by commit (Count)
system.cpu.commit.commitNonSpecStalls         1347525                       # The number of times commit has been forced to stall to communicate backwards (Count)
system.cpu.commit.branchMispredicts           1023896                       # The number of times a branch was mispredicted (Count)
system.cpu.commit.numCommittedDist::samples     95941791                       # Number of insts commited each cycle (Count)
system.cpu.commit.numCommittedDist::mean     2.678136                       # Number of insts commited each cycle (Count)
system.cpu.commit.numCommittedDist::stdev     3.226305                       # Number of insts commited each cycle (Count)
system.cpu.commit.numCommittedDist::underflows            0      0.00%      0.00% # Number of insts commited each cycle (Count)
system.cpu.commit.numCommittedDist::0        42726376     44.53%     44.53% # Number of insts commited each cycle (Count)
system.cpu.commit.numCommittedDist::1        11676715     12.17%     56.70% # Number of insts commited each cycle (Count)
system.cpu.commit.numCommittedDist::2         3738329      3.90%     60.60% # Number of insts commited each cycle (Count)
system.cpu.commit.numCommittedDist::3         8311345      8.66%     69.26% # Number of insts commited each cycle (Count)
system.cpu.commit.numCommittedDist::4         2115736      2.21%     71.47% # Number of insts commited each cycle (Count)
system.cpu.commit.numCommittedDist::5         1908708      1.99%     73.46% # Number of insts commited each cycle (Count)
system.cpu.commit.numCommittedDist::6         3521068      3.67%     77.13% # Number of insts commited each cycle (Count)
system.cpu.commit.numCommittedDist::7         1823239      1.90%     79.03% # Number of insts commited each cycle (Count)
system.cpu.commit.numCommittedDist::8        20120275     20.97%    100.00% # Number of insts commited each cycle (Count)
system.cpu.commit.numCommittedDist::overflows            0      0.00%    100.00% # Number of insts commited each cycle (Count)
system.cpu.commit.numCommittedDist::min_value            0                       # Number of insts commited each cycle (Count)
system.cpu.commit.numCommittedDist::max_value            8                       # Number of insts commited each cycle (Count)
system.cpu.commit.numCommittedDist::total     95941791                       # Number of insts commited each cycle (Count)
system.cpu.commit.amos                              0                       # Number of atomic instructions committed (Count)
system.cpu.commit.membars                      897650                       # Number of memory barriers committed (Count)
system.cpu.commit.functionCalls                647819                       # Number of function calls committed. (Count)
system.cpu.commit.committedInstType_0::No_OpClass       791481      0.31%      0.31% # Class of committed instruction (Count)
system.cpu.commit.committedInstType_0::IntAlu    202121754     78.66%     78.97% # Class of committed instruction (Count)
system.cpu.commit.committedInstType_0::IntMult       710639      0.28%     79.25% # Class of committed instruction (Count)
system.cpu.commit.committedInstType_0::IntDiv        45133      0.02%     79.27% # Class of committed instruction (Count)
system.cpu.commit.committedInstType_0::FloatAdd        10637      0.00%     79.27% # Class of committed instruction (Count)
system.cpu.commit.committedInstType_0::FloatCmp            0      0.00%     79.27% # Class of committed instruction (Count)
system.cpu.commit.committedInstType_0::FloatCvt         1808      0.00%     79.27% # Class of committed instruction (Count)
system.cpu.commit.committedInstType_0::FloatMult            0      0.00%     79.27% # Class of committed instruction (Count)
system.cpu.commit.committedInstType_0::FloatMultAcc            0      0.00%     79.27% # Class of committed instruction (Count)
system.cpu.commit.committedInstType_0::FloatDiv            0      0.00%     79.27% # Class of committed instruction (Count)
system.cpu.commit.committedInstType_0::FloatMisc            0      0.00%     79.27% # Class of committed instruction (Count)
system.cpu.commit.committedInstType_0::FloatSqrt            0      0.00%     79.27% # Class of committed instruction (Count)
system.cpu.commit.committedInstType_0::SimdAdd         7056      0.00%     79.27% # Class of committed instruction (Count)
system.cpu.commit.committedInstType_0::SimdAddAcc            0      0.00%     79.27% # Class of committed instruction (Count)
system.cpu.commit.committedInstType_0::SimdAlu        15258      0.01%     79.28% # Class of committed instruction (Count)
system.cpu.commit.committedInstType_0::SimdCmp           24      0.00%     79.28% # Class of committed instruction (Count)
system.cpu.commit.committedInstType_0::SimdCvt        14626      0.01%     79.28% # Class of committed instruction (Count)
system.cpu.commit.committedInstType_0::SimdMisc        32524      0.01%     79.30% # Class of committed instruction (Count)
system.cpu.commit.committedInstType_0::SimdMult            0      0.00%     79.30% # Class of committed instruction (Count)
system.cpu.commit.committedInstType_0::SimdMultAcc            0      0.00%     79.30% # Class of committed instruction (Count)
system.cpu.commit.committedInstType_0::SimdMatMultAcc            0      0.00%     79.30% # Class of committed instruction (Count)
system.cpu.commit.committedInstType_0::SimdShift         1857      0.00%     79.30% # Class of committed instruction (Count)
system.cpu.commit.committedInstType_0::SimdShiftAcc            0      0.00%     79.30% # Class of committed instruction (Count)
system.cpu.commit.committedInstType_0::SimdDiv            0      0.00%     79.30% # Class of committed instruction (Count)
system.cpu.commit.committedInstType_0::SimdSqrt            0      0.00%     79.30% # Class of committed instruction (Count)
system.cpu.commit.committedInstType_0::SimdFloatAdd          136      0.00%     79.30% # Class of committed instruction (Count)
system.cpu.commit.committedInstType_0::SimdFloatAlu            0      0.00%     79.30% # Class of committed instruction (Count)
system.cpu.commit.committedInstType_0::SimdFloatCmp            0      0.00%     79.30% # Class of committed instruction (Count)
system.cpu.commit.committedInstType_0::SimdFloatCvt         1052      0.00%     79.30% # Class of committed instruction (Count)
system.cpu.commit.committedInstType_0::SimdFloatDiv          230      0.00%     79.30% # Class of committed instruction (Count)
system.cpu.commit.committedInstType_0::SimdFloatMisc            0      0.00%     79.30% # Class of committed instruction (Count)
system.cpu.commit.committedInstType_0::SimdFloatMult            0      0.00%     79.30% # Class of committed instruction (Count)
system.cpu.commit.committedInstType_0::SimdFloatMultAcc            0      0.00%     79.30% # Class of committed instruction (Count)
system.cpu.commit.committedInstType_0::SimdFloatMatMultAcc            0      0.00%     79.30% # Class of committed instruction (Count)
system.cpu.commit.committedInstType_0::SimdFloatSqrt            2      0.00%     79.30% # Class of committed instruction (Count)
system.cpu.commit.committedInstType_0::SimdReduceAdd            0      0.00%     79.30% # Class of committed instruction (Count)
system.cpu.commit.committedInstType_0::SimdReduceAlu            0      0.00%     79.30% # Class of committed instruction (Count)
system.cpu.commit.committedInstType_0::SimdReduceCmp            0      0.00%     79.30% # Class of committed instruction (Count)
system.cpu.commit.committedInstType_0::SimdFloatReduceAdd            0      0.00%     79.30% # Class of committed instruction (Count)
system.cpu.commit.committedInstType_0::SimdFloatReduceCmp            0      0.00%     79.30% # Class of committed instruction (Count)
system.cpu.commit.committedInstType_0::SimdAes            0      0.00%     79.30% # Class of committed instruction (Count)
system.cpu.commit.committedInstType_0::SimdAesMix            0      0.00%     79.30% # Class of committed instruction (Count)
system.cpu.commit.committedInstType_0::SimdSha1Hash            0      0.00%     79.30% # Class of committed instruction (Count)
system.cpu.commit.committedInstType_0::SimdSha1Hash2            0      0.00%     79.30% # Class of committed instruction (Count)
system.cpu.commit.committedInstType_0::SimdSha256Hash            0      0.00%     79.30% # Class of committed instruction (Count)
system.cpu.commit.committedInstType_0::SimdSha256Hash2            0      0.00%     79.30% # Class of committed instruction (Count)
system.cpu.commit.committedInstType_0::SimdShaSigma2            0      0.00%     79.30% # Class of committed instruction (Count)
system.cpu.commit.committedInstType_0::SimdShaSigma3            0      0.00%     79.30% # Class of committed instruction (Count)
system.cpu.commit.committedInstType_0::SimdPredAlu            0      0.00%     79.30% # Class of committed instruction (Count)
system.cpu.commit.committedInstType_0::Matrix            0      0.00%     79.30% # Class of committed instruction (Count)
system.cpu.commit.committedInstType_0::MatrixMov            0      0.00%     79.30% # Class of committed instruction (Count)
system.cpu.commit.committedInstType_0::MatrixOP            0      0.00%     79.30% # Class of committed instruction (Count)
system.cpu.commit.committedInstType_0::MemRead     43156174     16.80%     96.09% # Class of committed instruction (Count)
system.cpu.commit.committedInstType_0::MemWrite      9885634      3.85%     99.94% # Class of committed instruction (Count)
system.cpu.commit.committedInstType_0::FloatMemRead        20424      0.01%     99.95% # Class of committed instruction (Count)
system.cpu.commit.committedInstType_0::FloatMemWrite       128724      0.05%    100.00% # Class of committed instruction (Count)
system.cpu.commit.committedInstType_0::IprAccess            0      0.00%    100.00% # Class of committed instruction (Count)
system.cpu.commit.committedInstType_0::InstPrefetch            0      0.00%    100.00% # Class of committed instruction (Count)
system.cpu.commit.committedInstType_0::SimdUnitStrideLoad            0      0.00%    100.00% # Class of committed instruction (Count)
system.cpu.commit.committedInstType_0::SimdUnitStrideStore            0      0.00%    100.00% # Class of committed instruction (Count)
system.cpu.commit.committedInstType_0::SimdUnitStrideMaskLoad            0      0.00%    100.00% # Class of committed instruction (Count)
system.cpu.commit.committedInstType_0::SimdUnitStrideMaskStore            0      0.00%    100.00% # Class of committed instruction (Count)
system.cpu.commit.committedInstType_0::SimdStridedLoad            0      0.00%    100.00% # Class of committed instruction (Count)
system.cpu.commit.committedInstType_0::SimdStridedStore            0      0.00%    100.00% # Class of committed instruction (Count)
system.cpu.commit.committedInstType_0::SimdIndexedLoad            0      0.00%    100.00% # Class of committed instruction (Count)
system.cpu.commit.committedInstType_0::SimdIndexedStore            0      0.00%    100.00% # Class of committed instruction (Count)
system.cpu.commit.committedInstType_0::SimdWholeRegisterLoad            0      0.00%    100.00% # Class of committed instruction (Count)
system.cpu.commit.committedInstType_0::SimdWholeRegisterStore            0      0.00%    100.00% # Class of committed instruction (Count)
system.cpu.commit.committedInstType_0::SimdUnitStrideFaultOnlyFirstLoad            0      0.00%    100.00% # Class of committed instruction (Count)
system.cpu.commit.committedInstType_0::SimdUnitStrideSegmentedLoad            0      0.00%    100.00% # Class of committed instruction (Count)
system.cpu.commit.committedInstType_0::SimdUnitStrideSegmentedStore            0      0.00%    100.00% # Class of committed instruction (Count)
system.cpu.commit.committedInstType_0::SimdExt            0      0.00%    100.00% # Class of committed instruction (Count)
system.cpu.commit.committedInstType_0::SimdFloatExt            0      0.00%    100.00% # Class of committed instruction (Count)
system.cpu.commit.committedInstType_0::SimdConfig            0      0.00%    100.00% # Class of committed instruction (Count)
system.cpu.commit.committedInstType_0::total    256945173                       # Class of committed instruction (Count)
system.cpu.commit.commitEligibleSamples      20120275                       # number cycles where commit BW limit reached (Cycle)
system.cpu.commitStats0.numInsts            146325112                       # Number of instructions committed (thread level) (Count)
system.cpu.commitStats0.numOps              256945173                       # Number of ops (including micro ops) committed (thread level) (Count)
system.cpu.commitStats0.numInstsNotNOP      146325112                       # Number of instructions committed excluding NOPs or prefetches (Count)
system.cpu.commitStats0.numOpsNotNOP        256945173                       # Number of Ops (including micro ops) Simulated (Count)
system.cpu.commitStats0.cpi                  0.730238                       # CPI: cycles per instruction (thread level) ((Cycle/Count))
system.cpu.commitStats0.ipc                  1.369416                       # IPC: instructions per cycle (thread level) ((Count/Cycle))
system.cpu.commitStats0.numMemRefs           53190956                       # Number of memory references committed (Count)
system.cpu.commitStats0.numFpInsts             241711                       # Number of float instructions (Count)
system.cpu.commitStats0.numIntInsts         255169079                       # Number of integer instructions (Count)
system.cpu.commitStats0.numLoadInsts         43176598                       # Number of load instructions (Count)
system.cpu.commitStats0.numStoreInsts        10014358                       # Number of store instructions (Count)
system.cpu.commitStats0.numVecInsts                 0                       # Number of vector instructions (Count)
system.cpu.commitStats0.committedInstType::No_OpClass       791481      0.31%      0.31% # Class of committed instruction. (Count)
system.cpu.commitStats0.committedInstType::IntAlu    202121754     78.66%     78.97% # Class of committed instruction. (Count)
system.cpu.commitStats0.committedInstType::IntMult       710639      0.28%     79.25% # Class of committed instruction. (Count)
system.cpu.commitStats0.committedInstType::IntDiv        45133      0.02%     79.27% # Class of committed instruction. (Count)
system.cpu.commitStats0.committedInstType::FloatAdd        10637      0.00%     79.27% # Class of committed instruction. (Count)
system.cpu.commitStats0.committedInstType::FloatCmp            0      0.00%     79.27% # Class of committed instruction. (Count)
system.cpu.commitStats0.committedInstType::FloatCvt         1808      0.00%     79.27% # Class of committed instruction. (Count)
system.cpu.commitStats0.committedInstType::FloatMult            0      0.00%     79.27% # Class of committed instruction. (Count)
system.cpu.commitStats0.committedInstType::FloatMultAcc            0      0.00%     79.27% # Class of committed instruction. (Count)
system.cpu.commitStats0.committedInstType::FloatDiv            0      0.00%     79.27% # Class of committed instruction. (Count)
system.cpu.commitStats0.committedInstType::FloatMisc            0      0.00%     79.27% # Class of committed instruction. (Count)
system.cpu.commitStats0.committedInstType::FloatSqrt            0      0.00%     79.27% # Class of committed instruction. (Count)
system.cpu.commitStats0.committedInstType::SimdAdd         7056      0.00%     79.27% # Class of committed instruction. (Count)
system.cpu.commitStats0.committedInstType::SimdAddAcc            0      0.00%     79.27% # Class of committed instruction. (Count)
system.cpu.commitStats0.committedInstType::SimdAlu        15258      0.01%     79.28% # Class of committed instruction. (Count)
system.cpu.commitStats0.committedInstType::SimdCmp           24      0.00%     79.28% # Class of committed instruction. (Count)
system.cpu.commitStats0.committedInstType::SimdCvt        14626      0.01%     79.28% # Class of committed instruction. (Count)
system.cpu.commitStats0.committedInstType::SimdMisc        32524      0.01%     79.30% # Class of committed instruction. (Count)
system.cpu.commitStats0.committedInstType::SimdMult            0      0.00%     79.30% # Class of committed instruction. (Count)
system.cpu.commitStats0.committedInstType::SimdMultAcc            0      0.00%     79.30% # Class of committed instruction. (Count)
system.cpu.commitStats0.committedInstType::SimdMatMultAcc            0      0.00%     79.30% # Class of committed instruction. (Count)
system.cpu.commitStats0.committedInstType::SimdShift         1857      0.00%     79.30% # Class of committed instruction. (Count)
system.cpu.commitStats0.committedInstType::SimdShiftAcc            0      0.00%     79.30% # Class of committed instruction. (Count)
system.cpu.commitStats0.committedInstType::SimdDiv            0      0.00%     79.30% # Class of committed instruction. (Count)
system.cpu.commitStats0.committedInstType::SimdSqrt            0      0.00%     79.30% # Class of committed instruction. (Count)
system.cpu.commitStats0.committedInstType::SimdFloatAdd          136      0.00%     79.30% # Class of committed instruction. (Count)
system.cpu.commitStats0.committedInstType::SimdFloatAlu            0      0.00%     79.30% # Class of committed instruction. (Count)
system.cpu.commitStats0.committedInstType::SimdFloatCmp            0      0.00%     79.30% # Class of committed instruction. (Count)
system.cpu.commitStats0.committedInstType::SimdFloatCvt         1052      0.00%     79.30% # Class of committed instruction. (Count)
system.cpu.commitStats0.committedInstType::SimdFloatDiv          230      0.00%     79.30% # Class of committed instruction. (Count)
system.cpu.commitStats0.committedInstType::SimdFloatMisc            0      0.00%     79.30% # Class of committed instruction. (Count)
system.cpu.commitStats0.committedInstType::SimdFloatMult            0      0.00%     79.30% # Class of committed instruction. (Count)
system.cpu.commitStats0.committedInstType::SimdFloatMultAcc            0      0.00%     79.30% # Class of committed instruction. (Count)
system.cpu.commitStats0.committedInstType::SimdFloatMatMultAcc            0      0.00%     79.30% # Class of committed instruction. (Count)
system.cpu.commitStats0.committedInstType::SimdFloatSqrt            2      0.00%     79.30% # Class of committed instruction. (Count)
system.cpu.commitStats0.committedInstType::SimdReduceAdd            0      0.00%     79.30% # Class of committed instruction. (Count)
system.cpu.commitStats0.committedInstType::SimdReduceAlu            0      0.00%     79.30% # Class of committed instruction. (Count)
system.cpu.commitStats0.committedInstType::SimdReduceCmp            0      0.00%     79.30% # Class of committed instruction. (Count)
system.cpu.commitStats0.committedInstType::SimdFloatReduceAdd            0      0.00%     79.30% # Class of committed instruction. (Count)
system.cpu.commitStats0.committedInstType::SimdFloatReduceCmp            0      0.00%     79.30% # Class of committed instruction. (Count)
system.cpu.commitStats0.committedInstType::SimdAes            0      0.00%     79.30% # Class of committed instruction. (Count)
system.cpu.commitStats0.committedInstType::SimdAesMix            0      0.00%     79.30% # Class of committed instruction. (Count)
system.cpu.commitStats0.committedInstType::SimdSha1Hash            0      0.00%     79.30% # Class of committed instruction. (Count)
system.cpu.commitStats0.committedInstType::SimdSha1Hash2            0      0.00%     79.30% # Class of committed instruction. (Count)
system.cpu.commitStats0.committedInstType::SimdSha256Hash            0      0.00%     79.30% # Class of committed instruction. (Count)
system.cpu.commitStats0.committedInstType::SimdSha256Hash2            0      0.00%     79.30% # Class of committed instruction. (Count)
system.cpu.commitStats0.committedInstType::SimdShaSigma2            0      0.00%     79.30% # Class of committed instruction. (Count)
system.cpu.commitStats0.committedInstType::SimdShaSigma3            0      0.00%     79.30% # Class of committed instruction. (Count)
system.cpu.commitStats0.committedInstType::SimdPredAlu            0      0.00%     79.30% # Class of committed instruction. (Count)
system.cpu.commitStats0.committedInstType::Matrix            0      0.00%     79.30% # Class of committed instruction. (Count)
system.cpu.commitStats0.committedInstType::MatrixMov            0      0.00%     79.30% # Class of committed instruction. (Count)
system.cpu.commitStats0.committedInstType::MatrixOP            0      0.00%     79.30% # Class of committed instruction. (Count)
system.cpu.commitStats0.committedInstType::MemRead     43156174     16.80%     96.09% # Class of committed instruction. (Count)
system.cpu.commitStats0.committedInstType::MemWrite      9885634      3.85%     99.94% # Class of committed instruction. (Count)
system.cpu.commitStats0.committedInstType::FloatMemRead        20424      0.01%     99.95% # Class of committed instruction. (Count)
system.cpu.commitStats0.committedInstType::FloatMemWrite       128724      0.05%    100.00% # Class of committed instruction. (Count)
system.cpu.commitStats0.committedInstType::IprAccess            0      0.00%    100.00% # Class of committed instruction. (Count)
system.cpu.commitStats0.committedInstType::InstPrefetch            0      0.00%    100.00% # Class of committed instruction. (Count)
system.cpu.commitStats0.committedInstType::SimdUnitStrideLoad            0      0.00%    100.00% # Class of committed instruction. (Count)
system.cpu.commitStats0.committedInstType::SimdUnitStrideStore            0      0.00%    100.00% # Class of committed instruction. (Count)
system.cpu.commitStats0.committedInstType::SimdUnitStrideMaskLoad            0      0.00%    100.00% # Class of committed instruction. (Count)
system.cpu.commitStats0.committedInstType::SimdUnitStrideMaskStore            0      0.00%    100.00% # Class of committed instruction. (Count)
system.cpu.commitStats0.committedInstType::SimdStridedLoad            0      0.00%    100.00% # Class of committed instruction. (Count)
system.cpu.commitStats0.committedInstType::SimdStridedStore            0      0.00%    100.00% # Class of committed instruction. (Count)
system.cpu.commitStats0.committedInstType::SimdIndexedLoad            0      0.00%    100.00% # Class of committed instruction. (Count)
system.cpu.commitStats0.committedInstType::SimdIndexedStore            0      0.00%    100.00% # Class of committed instruction. (Count)
system.cpu.commitStats0.committedInstType::SimdWholeRegisterLoad            0      0.00%    100.00% # Class of committed instruction. (Count)
system.cpu.commitStats0.committedInstType::SimdWholeRegisterStore            0      0.00%    100.00% # Class of committed instruction. (Count)
system.cpu.commitStats0.committedInstType::SimdUnitStrideFaultOnlyFirstLoad            0      0.00%    100.00% # Class of committed instruction. (Count)
system.cpu.commitStats0.committedInstType::SimdUnitStrideSegmentedLoad            0      0.00%    100.00% # Class of committed instruction. (Count)
system.cpu.commitStats0.committedInstType::SimdUnitStrideSegmentedStore            0      0.00%    100.00% # Class of committed instruction. (Count)
system.cpu.commitStats0.committedInstType::SimdExt            0      0.00%    100.00% # Class of committed instruction. (Count)
system.cpu.commitStats0.committedInstType::SimdFloatExt            0      0.00%    100.00% # Class of committed instruction. (Count)
system.cpu.commitStats0.committedInstType::SimdConfig            0      0.00%    100.00% # Class of committed instruction. (Count)
system.cpu.commitStats0.committedInstType::total    256945173                       # Class of committed instruction. (Count)
system.cpu.commitStats0.committedControl::IsControl     29352922                       # Class of control type instructions committed (Count)
system.cpu.commitStats0.committedControl::IsDirectControl     28559417                       # Class of control type instructions committed (Count)
system.cpu.commitStats0.committedControl::IsIndirectControl       793232                       # Class of control type instructions committed (Count)
system.cpu.commitStats0.committedControl::IsCondControl     25049374                       # Class of control type instructions committed (Count)
system.cpu.commitStats0.committedControl::IsUncondControl      4303275                       # Class of control type instructions committed (Count)
system.cpu.commitStats0.committedControl::IsCall       647819                       # Class of control type instructions committed (Count)
system.cpu.commitStats0.committedControl::IsReturn       647814                       # Class of control type instructions committed (Count)
system.cpu.decode.idleCycles                  7109982                       # Number of cycles decode is idle (Cycle)
system.cpu.decode.blockedCycles              47402929                       # Number of cycles decode is blocked (Cycle)
system.cpu.decode.runCycles                  43484891                       # Number of cycles decode is running (Cycle)
system.cpu.decode.unblockCycles               7691138                       # Number of cycles decode is unblocking (Cycle)
system.cpu.decode.squashCycles                1151458                       # Number of cycles decode is squashing (Cycle)
system.cpu.decode.branchResolved             20335582                       # Number of times decode resolved a branch (Count)
system.cpu.decode.branchMispred                  4766                       # Number of times decode detected a branch misprediction (Count)
system.cpu.decode.decodedInsts              354742037                       # Number of instructions handled by decode (Count)
system.cpu.decode.squashedInsts                 23649                       # Number of squashed instructions handled by decode (Count)
system.cpu.executeStats0.numInsts           309082030                       # Number of executed instructions (Count)
system.cpu.executeStats0.numNop                     0                       # Number of nop insts executed (Count)
system.cpu.executeStats0.numBranches         33459762                       # Number of branches executed (Count)
system.cpu.executeStats0.numLoadInsts        54176799                       # Number of load instructions executed (Count)
system.cpu.executeStats0.numStoreInsts       11489444                       # Number of stores executed (Count)
system.cpu.executeStats0.instRate            2.892612                       # Inst execution rate ((Count/Cycle))
system.cpu.executeStats0.numCCRegReads      227522814                       # Number of times the CC registers were read (Count)
system.cpu.executeStats0.numCCRegWrites     116259713                       # Number of times the CC registers were written (Count)
system.cpu.executeStats0.numFpRegReads         357971                       # Number of times the floating registers were read (Count)
system.cpu.executeStats0.numFpRegWrites        133209                       # Number of times the floating registers were written (Count)
system.cpu.executeStats0.numIntRegReads     398566243                       # Number of times the integer registers were read (Count)
system.cpu.executeStats0.numIntRegWrites    225255317                       # Number of times the integer registers were written (Count)
system.cpu.executeStats0.numMemRefs          65666243                       # Number of memory refs (Count)
system.cpu.executeStats0.numMiscRegReads    135289369                       # Number of times the Misc registers were read (Count)
system.cpu.executeStats0.numMiscRegWrites         1017                       # Number of times the Misc registers were written (Count)
system.cpu.executeStats0.numVecAluAccesses            0                       # Number of vector alu accesses (Count)
system.cpu.executeStats0.numDiscardedOps            0                       # Number of ops (including micro ops) which were discarded before commit (Count)
system.cpu.fetch.predictedBranches           22523369                       # Number of branches that fetch has predicted taken (Count)
system.cpu.fetch.cycles                     103871549                       # Number of cycles fetch has run and was not squashing or blocked (Cycle)
system.cpu.fetch.squashCycles                 2312248                       # Number of cycles fetch has spent squashing (Cycle)
system.cpu.fetch.miscStallCycles                  417                       # Number of cycles fetch has spent waiting on interrupts, or bad addresses, or out of MSHRs (Cycle)
system.cpu.fetch.pendingTrapStallCycles          3739                       # Number of stall cycles due to pending traps (Cycle)
system.cpu.fetch.cacheLines                  26266387                       # Number of cache lines fetched (Count)
[...]
system.mem_ctrl.dram.bwRead::cpu.data        33876790                       # Total read bandwidth from this memory ((Byte/Second))
system.mem_ctrl.dram.bwRead::total          233748909                       # Total read bandwidth from this memory ((Byte/Second))
system.mem_ctrl.dram.bwInstRead::cpu.inst    199872119                       # Instruction read bandwidth from this memory ((Byte/Second))
system.mem_ctrl.dram.bwInstRead::total      199872119                       # Instruction read bandwidth from this memory ((Byte/Second))
system.mem_ctrl.dram.bwWrite::writebacks     13309705                       # Write bandwidth from this memory ((Byte/Second))
system.mem_ctrl.dram.bwWrite::total          13309705                       # Write bandwidth from this memory ((Byte/Second))
system.mem_ctrl.dram.bwTotal::writebacks     13309705                       # Total bandwidth to/from this memory ((Byte/Second))
system.mem_ctrl.dram.bwTotal::cpu.inst      199872119                       # Total bandwidth to/from this memory ((Byte/Second))
system.mem_ctrl.dram.bwTotal::cpu.data       33876790                       # Total bandwidth to/from this memory ((Byte/Second))
system.mem_ctrl.dram.bwTotal::total         247058615                       # Total bandwidth to/from this memory ((Byte/Second))
system.mem_ctrl.dram.readBursts                360996                       # Number of DRAM read bursts (Count)
system.mem_ctrl.dram.writeBursts                13043                       # Number of DRAM write bursts (Count)
system.mem_ctrl.dram.perBankRdBursts::0        139131                       # Per bank write bursts (Count)
system.mem_ctrl.dram.perBankRdBursts::1         53835                       # Per bank write bursts (Count)
system.mem_ctrl.dram.perBankRdBursts::2         38865                       # Per bank write bursts (Count)
system.mem_ctrl.dram.perBankRdBursts::3          6570                       # Per bank write bursts (Count)
system.mem_ctrl.dram.perBankRdBursts::4          1108                       # Per bank write bursts (Count)
system.mem_ctrl.dram.perBankRdBursts::5          1363                       # Per bank write bursts (Count)
system.mem_ctrl.dram.perBankRdBursts::6         30612                       # Per bank write bursts (Count)
system.mem_ctrl.dram.perBankRdBursts::7         10644                       # Per bank write bursts (Count)
system.mem_ctrl.dram.perBankRdBursts::8          2931                       # Per bank write bursts (Count)
system.mem_ctrl.dram.perBankRdBursts::9          1965                       # Per bank write bursts (Count)
system.mem_ctrl.dram.perBankRdBursts::10        16478                       # Per bank write bursts (Count)
system.mem_ctrl.dram.perBankRdBursts::11         1856                       # Per bank write bursts (Count)
system.mem_ctrl.dram.perBankRdBursts::12         5188                       # Per bank write bursts (Count)
system.mem_ctrl.dram.perBankRdBursts::13        24322                       # Per bank write bursts (Count)
system.mem_ctrl.dram.perBankRdBursts::14        24480                       # Per bank write bursts (Count)
system.mem_ctrl.dram.perBankRdBursts::15         1648                       # Per bank write bursts (Count)
system.mem_ctrl.dram.perBankWrBursts::0           648                       # Per bank write bursts (Count)
system.mem_ctrl.dram.perBankWrBursts::1           683                       # Per bank write bursts (Count)
system.mem_ctrl.dram.perBankWrBursts::2           622                       # Per bank write bursts (Count)
system.mem_ctrl.dram.perBankWrBursts::3           670                       # Per bank write bursts (Count)
system.mem_ctrl.dram.perBankWrBursts::4           264                       # Per bank write bursts (Count)
system.mem_ctrl.dram.perBankWrBursts::5           522                       # Per bank write bursts (Count)
system.mem_ctrl.dram.perBankWrBursts::6           336                       # Per bank write bursts (Count)
system.mem_ctrl.dram.perBankWrBursts::7           312                       # Per bank write bursts (Count)
system.mem_ctrl.dram.perBankWrBursts::8          1221                       # Per bank write bursts (Count)
system.mem_ctrl.dram.perBankWrBursts::9           450                       # Per bank write bursts (Count)
system.mem_ctrl.dram.perBankWrBursts::10         1467                       # Per bank write bursts (Count)
system.mem_ctrl.dram.perBankWrBursts::11          615                       # Per bank write bursts (Count)
system.mem_ctrl.dram.perBankWrBursts::12         3275                       # Per bank write bursts (Count)
system.mem_ctrl.dram.perBankWrBursts::13          650                       # Per bank write bursts (Count)
system.mem_ctrl.dram.perBankWrBursts::14          649                       # Per bank write bursts (Count)
system.mem_ctrl.dram.perBankWrBursts::15          659                       # Per bank write bursts (Count)
system.mem_ctrl.dram.totQLat               3702468975                       # Total ticks spent queuing (Tick)
system.mem_ctrl.dram.totBusLat             1804980000                       # Total ticks spent in databus transfers (Tick)
system.mem_ctrl.dram.totMemAccLat         10471143975                       # Total ticks spent from burst creation until serviced by the DRAM (Tick)
system.mem_ctrl.dram.avgQLat                 10256.26                       # Average queueing delay per DRAM burst ((Tick/Count))
system.mem_ctrl.dram.avgBusLat                5000.00                       # Average bus latency per DRAM burst ((Tick/Count))
system.mem_ctrl.dram.avgMemAccLat            29006.26                       # Average memory access latency per DRAM burst ((Tick/Count))
system.mem_ctrl.dram.readRowHits               242469                       # Number of row buffer hits during reads (Count)
system.mem_ctrl.dram.writeRowHits               11530                       # Number of row buffer hits during writes (Count)
system.mem_ctrl.dram.readRowHitRate             67.17                       # Row buffer hit rate for reads (Ratio)
system.mem_ctrl.dram.writeRowHitRate            88.40                       # Row buffer hit rate for writes (Ratio)
system.mem_ctrl.dram.bytesPerActivate::samples       120036                       # Bytes accessed per row activation (Byte)
system.mem_ctrl.dram.bytesPerActivate::mean   199.424973                       # Bytes accessed per row activation (Byte)
system.mem_ctrl.dram.bytesPerActivate::gmean   143.609264                       # Bytes accessed per row activation (Byte)
system.mem_ctrl.dram.bytesPerActivate::stdev   185.090209                       # Bytes accessed per row activation (Byte)
system.mem_ctrl.dram.bytesPerActivate::0-127        49297     41.07%     41.07% # Bytes accessed per row activation (Byte)
system.mem_ctrl.dram.bytesPerActivate::128-255        29673     24.72%     65.79% # Bytes accessed per row activation (Byte)
system.mem_ctrl.dram.bytesPerActivate::256-383        25802     21.50%     87.28% # Bytes accessed per row activation (Byte)
system.mem_ctrl.dram.bytesPerActivate::384-511         6550      5.46%     92.74% # Bytes accessed per row activation (Byte)
system.mem_ctrl.dram.bytesPerActivate::512-639         2265      1.89%     94.63% # Bytes accessed per row activation (Byte)
system.mem_ctrl.dram.bytesPerActivate::640-767         1986      1.65%     96.28% # Bytes accessed per row activation (Byte)
system.mem_ctrl.dram.bytesPerActivate::768-895         2715      2.26%     98.54% # Bytes accessed per row activation (Byte)
system.mem_ctrl.dram.bytesPerActivate::896-1023         1068      0.89%     99.43% # Bytes accessed per row activation (Byte)
system.mem_ctrl.dram.bytesPerActivate::1024-1151          680      0.57%    100.00% # Bytes accessed per row activation (Byte)
system.mem_ctrl.dram.bytesPerActivate::total       120036                       # Bytes accessed per row activation (Byte)
system.mem_ctrl.dram.dramBytesRead           23103744                       # Total bytes read (Byte)
system.mem_ctrl.dram.dramBytesWritten          834752                       # Total bytes written (Byte)
system.mem_ctrl.dram.avgRdBW               227.164220                       # Average DRAM read bandwidth in MiBytes/s ((Byte/Second))
system.mem_ctrl.dram.avgWrBW                 8.207578                       # Average DRAM write bandwidth in MiBytes/s ((Byte/Second))
system.mem_ctrl.dram.peakBW                  12800.00                       # Theoretical peak bandwidth in MiByte/s ((Byte/Second))
system.mem_ctrl.dram.busUtil                     1.84                       # Data bus utilization in percentage (Ratio)
system.mem_ctrl.dram.busUtilRead                 1.77                       # Data bus utilization in percentage for reads (Ratio)
system.mem_ctrl.dram.busUtilWrite                0.06                       # Data bus utilization in percentage for writes (Ratio)
system.mem_ctrl.dram.pageHitRate                67.91                       # Row buffer hit rate, read and write combined (Ratio)
system.mem_ctrl.dram.power_state.pwrStateResidencyTicks::UNDEFINED 101705030644                       # Cumulative time (in ticks) in various power states (Tick)
system.mem_ctrl.dram.rank0.actEnergy        546888300                       # Energy for activate commands per rank (pJ) (Joule)
system.mem_ctrl.dram.rank0.preEnergy        290666640                       # Energy for precharge commands per rank (pJ) (Joule)
system.mem_ctrl.dram.rank0.readEnergy      2014393920                       # Energy for read commands per rank (pJ) (Joule)
system.mem_ctrl.dram.rank0.writeEnergy       21177540                       # Energy for write commands per rank (pJ) (Joule)
system.mem_ctrl.dram.rank0.refreshEnergy 8028427680.000001                       # Energy for refresh commands per rank (pJ) (Joule)
system.mem_ctrl.dram.rank0.actBackEnergy  42735966600                       # Energy for active background per rank (pJ) (Joule)
system.mem_ctrl.dram.rank0.preBackEnergy   3066510240                       # Energy for precharge background per rank (pJ) (Joule)
system.mem_ctrl.dram.rank0.actPowerDownEnergy            0                       # Energy for active power-down per rank (pJ) (Joule)
system.mem_ctrl.dram.rank0.prePowerDownEnergy            0                       # Energy for precharge power-down per rank (pJ) (Joule)
system.mem_ctrl.dram.rank0.selfRefreshEnergy            0                       # Energy for self refresh per rank (pJ) (Joule)
system.mem_ctrl.dram.rank0.totalEnergy    56704030920                       # Total energy per rank (pJ) (Joule)
system.mem_ctrl.dram.rank0.averagePower    557.534181                       # Core power per rank (mW) (Watt)
system.mem_ctrl.dram.rank0.totalIdleTime            0                       # Total Idle time Per DRAM Rank (Tick)
system.mem_ctrl.dram.rank0.pwrStateTime::IDLE   7629305304                       # Time in different power states (Tick)
system.mem_ctrl.dram.rank0.pwrStateTime::REF   3396235810                       # Time in different power states (Tick)
system.mem_ctrl.dram.rank0.pwrStateTime::SREF            0                       # Time in different power states (Tick)
system.mem_ctrl.dram.rank0.pwrStateTime::PRE_PDN            0                       # Time in different power states (Tick)
system.mem_ctrl.dram.rank0.pwrStateTime::ACT  90679489530                       # Time in different power states (Tick)
system.mem_ctrl.dram.rank0.pwrStateTime::ACT_PDN            0                       # Time in different power states (Tick)
system.mem_ctrl.dram.rank1.actEnergy        310197300                       # Energy for activate commands per rank (pJ) (Joule)
system.mem_ctrl.dram.rank1.preEnergy        164869980                       # Energy for precharge commands per rank (pJ) (Joule)
system.mem_ctrl.dram.rank1.readEnergy       563117520                       # Energy for read commands per rank (pJ) (Joule)
system.mem_ctrl.dram.rank1.writeEnergy       46906920                       # Energy for write commands per rank (pJ) (Joule)
system.mem_ctrl.dram.rank1.refreshEnergy 8028427680.000001                       # Energy for refresh commands per rank (pJ) (Joule)
system.mem_ctrl.dram.rank1.actBackEnergy  35027645130                       # Energy for active background per rank (pJ) (Joule)
system.mem_ctrl.dram.rank1.preBackEnergy   9557728320                       # Energy for precharge background per rank (pJ) (Joule)
system.mem_ctrl.dram.rank1.actPowerDownEnergy            0                       # Energy for active power-down per rank (pJ) (Joule)
system.mem_ctrl.dram.rank1.prePowerDownEnergy            0                       # Energy for precharge power-down per rank (pJ) (Joule)
system.mem_ctrl.dram.rank1.selfRefreshEnergy            0                       # Energy for self refresh per rank (pJ) (Joule)
system.mem_ctrl.dram.rank1.totalEnergy    53698892850                       # Total energy per rank (pJ) (Joule)
system.mem_ctrl.dram.rank1.averagePower    527.986595                       # Core power per rank (mW) (Watt)
system.mem_ctrl.dram.rank1.totalIdleTime            0                       # Total Idle time Per DRAM Rank (Tick)
system.mem_ctrl.dram.rank1.pwrStateTime::IDLE  24513939667                       # Time in different power states (Tick)
system.mem_ctrl.dram.rank1.pwrStateTime::REF   3396235810                       # Time in different power states (Tick)
system.mem_ctrl.dram.rank1.pwrStateTime::SREF            0                       # Time in different power states (Tick)
system.mem_ctrl.dram.rank1.pwrStateTime::PRE_PDN            0                       # Time in different power states (Tick)
system.mem_ctrl.dram.rank1.pwrStateTime::ACT  73794855167                       # Time in different power states (Tick)
system.mem_ctrl.dram.rank1.pwrStateTime::ACT_PDN            0                       # Time in different power states (Tick)
system.mem_ctrl.power_state.pwrStateResidencyTicks::UNDEFINED 101705030644                       # Cumulative time (in ticks) in various power states (Tick)
system.membus.transDist::ReadResp              353437                       # Transaction distribution (Count)
system.membus.transDist::WritebackDirty         21151                       # Transaction distribution (Count)
system.membus.transDist::CleanEvict            350309                       # Transaction distribution (Count)
system.membus.transDist::ReadExReq              18023                       # Transaction distribution (Count)
system.membus.transDist::ReadExResp             18023                       # Transaction distribution (Count)
system.membus.transDist::ReadSharedReq         353436                       # Transaction distribution (Count)
system.membus.pktCount_system.cpu.l1d.mem_side_port::system.mem_ctrl.port       161505                       # Packet count per connected requestor and responder (Count)
system.membus.pktCount_system.cpu.l1d.mem_side_port::total       161505                       # Packet count per connected requestor and responder (Count)
system.membus.pktCount_system.cpu.l1i.mem_side_port::system.mem_ctrl.port       952874                       # Packet count per connected requestor and responder (Count)
system.membus.pktCount_system.cpu.l1i.mem_side_port::total       952874                       # Packet count per connected requestor and responder (Count)
system.membus.pktCount::total                 1114379                       # Packet count per connected requestor and responder (Count)
system.membus.pktSize_system.cpu.l1d.mem_side_port::system.mem_ctrl.port      4799104                       # Cumulative packet size per connected requestor and responder (Byte)
system.membus.pktSize_system.cpu.l1d.mem_side_port::total      4799104                       # Cumulative packet size per connected requestor and responder (Byte)
system.membus.pktSize_system.cpu.l1i.mem_side_port::system.mem_ctrl.port     20328000                       # Cumulative packet size per connected requestor and responder (Byte)
system.membus.pktSize_system.cpu.l1i.mem_side_port::total     20328000                       # Cumulative packet size per connected requestor and responder (Byte)
system.membus.pktSize::total                 25127104                       # Cumulative packet size per connected requestor and responder (Byte)
system.membus.snoops                                0                       # Total snoops (Count)
system.membus.snoopTraffic                          0                       # Total snoop traffic (Byte)
system.membus.snoopFanout::samples             371459                       # Request fanout histogram (Count)
system.membus.snoopFanout::mean              0.000046                       # Request fanout histogram (Count)
system.membus.snoopFanout::stdev             0.006765                       # Request fanout histogram (Count)
system.membus.snoopFanout::underflows               0      0.00%      0.00% # Request fanout histogram (Count)
system.membus.snoopFanout::0                   371442    100.00%    100.00% # Request fanout histogram (Count)
system.membus.snoopFanout::1                       17      0.00%    100.00% # Request fanout histogram (Count)
system.membus.snoopFanout::2                        0      0.00%    100.00% # Request fanout histogram (Count)
system.membus.snoopFanout::overflows                0      0.00%    100.00% # Request fanout histogram (Count)
system.membus.snoopFanout::min_value                0                       # Request fanout histogram (Count)
system.membus.snoopFanout::max_value                1                       # Request fanout histogram (Count)
system.membus.snoopFanout::total               371459                       # Request fanout histogram (Count)
system.membus.power_state.pwrStateResidencyTicks::UNDEFINED 101705030644                       # Cumulative time (in ticks) in various power states (Tick)
system.membus.reqLayer2.occupancy         11033364159                       # Layer occupancy (ticks) (Tick)
system.membus.reqLayer2.utilization               0.1                       # Layer utilization (Ratio)
system.membus.respLayer2.occupancy         3665429826                       # Layer occupancy (ticks) (Tick)
system.membus.respLayer2.utilization              0.0                       # Layer utilization (Ratio)
system.membus.respLayer3.occupancy        21595770642                       # Layer occupancy (ticks) (Tick)
system.membus.respLayer3.utilization              0.2                       # Layer utilization (Ratio)
system.membus.snoop_filter.totRequests         742919                       # Total number of requests made to the snoop filter. (Count)
system.membus.snoop_filter.hitSingleRequests       371459                       # Number of requests hitting in the snoop filter with a single holder of the requested data. (Count)
system.membus.snoop_filter.hitMultiRequests           18                       # Number of requests hitting in the snoop filter with multiple (>1) holders of the requested data. (Count)
system.membus.snoop_filter.totSnoops                0                       # Total number of snoops made to the snoop filter. (Count)
system.membus.snoop_filter.hitSingleSnoops            0                       # Number of snoops hitting in the snoop filter with a single holder of the requested data. (Count)
system.membus.snoop_filter.hitMultiSnoops            0                       # Number of snoops hitting in the snoop filter with multiple (>1) holders of the requested data. (Count)
system.workload.inst.arm                            0                       # number of arm instructions executed (Count)
system.workload.inst.quiesce                        0                       # number of quiesce instructions executed (Count)

---------- End Simulation Statistics   ----------
