
---------- Begin Simulation Statistics ----------
simSeconds                                   2.101493                       # Number of seconds simulated (Second)
simTicks                                 2101493434684                       # Number of ticks simulated (Tick)
finalTick                                2101493434684                       # Number of ticks from beginning of simulation (restored from checkpoints and never reset) (Tick)
simFreq                                  1000000000000                       # The number of ticks per simulated second ((Tick/Second))
hostSeconds                                   1070.60                       # Real time elapsed on the host (Second)
hostTickRate                               1962911313                       # The number of ticks simulated per host second (ticks/s) ((Tick/Second))
hostMemory                                    8661476                       # Number of bytes of host memory used (Byte)
simInsts                                    232620831                       # Number of instructions simulated (Count)
simOps                                      374786184                       # Number of ops (including micro ops) simulated (Count)
hostInstRate                                   217281                       # Simulator instruction rate (inst/s) ((Count/Second))
hostOpRate                                     350071                       # Simulator op (including micro ops) rate (op/s) ((Count/Second))
system.clk_domain.clock                         13333                       # Clock period in ticks (Tick)
system.clk_domain.voltage_domain.voltage            1                       # Voltage in Volts (Volt)
system.cpu.numCycles                        157615949                       # Number of cpu cycles simulated (Cycle)
system.cpu.cpi                               0.677566                       # CPI: cycles per instruction (core level) ((Cycle/Count))
system.cpu.ipc                               1.475871                       # IPC: instructions per cycle (core level) ((Count/Cycle))
system.cpu.numWorkItemsStarted                      0                       # Number of work items this cpu started (Count)
system.cpu.numWorkItemsCompleted                    0                       # Number of work items this cpu completed (Count)
system.cpu.instsAdded                       538250046                       # Number of instructions added to the IQ (excludes non-spec) (Count)
system.cpu.nonSpecInstsAdded                   277621                       # Number of non-speculative instructions added to the IQ (Count)
system.cpu.instsIssued                      485209710                       # Number of instructions issued (Count)
system.cpu.squashedInstsIssued                3249328                       # Number of squashed instructions issued (Count)
system.cpu.squashedInstsExamined            163741458                       # Number of squashed instructions iterated over during squash; mainly for profiling (Count)
system.cpu.squashedOperandsExamined         310443021                       # Number of squashed operands that are examined and possibly removed from graph (Count)
system.cpu.squashedNonSpecRemoved               13779                       # Number of squashed non-spec instructions that were removed (Count)
system.cpu.numIssuedDist::samples           157600361                       # Number of insts issued each cycle (Count)
system.cpu.numIssuedDist::mean               3.078735                       # Number of insts issued each cycle (Count)
system.cpu.numIssuedDist::stdev              2.692077                       # Number of insts issued each cycle (Count)
system.cpu.numIssuedDist::underflows                0      0.00%      0.00% # Number of insts issued each cycle (Count)
system.cpu.numIssuedDist::0                  43762602     27.77%     27.77% # Number of insts issued each cycle (Count)
system.cpu.numIssuedDist::1                  12921316      8.20%     35.97% # Number of insts issued each cycle (Count)
system.cpu.numIssuedDist::2                  19705922     12.50%     48.47% # Number of insts issued each cycle (Count)
system.cpu.numIssuedDist::3                  15634949      9.92%     58.39% # Number of insts issued each cycle (Count)
system.cpu.numIssuedDist::4                  15306416      9.71%     68.10% # Number of insts issued each cycle (Count)
system.cpu.numIssuedDist::5                  11986717      7.61%     75.71% # Number of insts issued each cycle (Count)
system.cpu.numIssuedDist::6                  15302831      9.71%     85.42% # Number of insts issued each cycle (Count)
system.cpu.numIssuedDist::7                  10841396      6.88%     92.30% # Number of insts issued each cycle (Count)
system.cpu.numIssuedDist::8                  12138212      7.70%    100.00% # Number of insts issued each cycle (Count)
system.cpu.numIssuedDist::overflows                 0      0.00%    100.00% # Number of insts issued each cycle (Count)
system.cpu.numIssuedDist::min_value                 0                       # Number of insts issued each cycle (Count)
system.cpu.numIssuedDist::max_value                 8                       # Number of insts issued each cycle (Count)
system.cpu.numIssuedDist::total             157600361                       # Number of insts issued each cycle (Count)
system.cpu.statFuBusy::No_OpClass                   0      0.00%      0.00% # attempts to use FU when none available (Count)
system.cpu.statFuBusy::IntAlu                 9100469     67.87%     67.87% # attempts to use FU when none available (Count)
system.cpu.statFuBusy::IntMult                    134      0.00%     67.87% # attempts to use FU when none available (Count)
system.cpu.statFuBusy::IntDiv                       0      0.00%     67.87% # attempts to use FU when none available (Count)
system.cpu.statFuBusy::FloatAdd                     0      0.00%     67.87% # attempts to use FU when none available (Count)
system.cpu.statFuBusy::FloatCmp                     0      0.00%     67.87% # attempts to use FU when none available (Count)
system.cpu.statFuBusy::FloatCvt                     0      0.00%     67.87% # attempts to use FU when none available (Count)
system.cpu.statFuBusy::FloatMult                    0      0.00%     67.87% # attempts to use FU when none available (Count)
system.cpu.statFuBusy::FloatMultAcc                 0      0.00%     67.87% # attempts to use FU when none available (Count)
system.cpu.statFuBusy::FloatDiv                     0      0.00%     67.87% # attempts to use FU when none available (Count)
system.cpu.statFuBusy::FloatMisc                    0      0.00%     67.87% # attempts to use FU when none available (Count)
system.cpu.statFuBusy::FloatSqrt                    0      0.00%     67.87% # attempts to use FU when none available (Count)
system.cpu.statFuBusy::SimdAdd                     18      0.00%     67.87% # attempts to use FU when none available (Count)
system.cpu.statFuBusy::SimdAddAcc                   0      0.00%     67.87% # attempts to use FU when none available (Count)
system.cpu.statFuBusy::SimdAlu                    322      0.00%     67.87% # attempts to use FU when none available (Count)
system.cpu.statFuBusy::SimdCmp                      1      0.00%     67.87% # attempts to use FU when none available (Count)
system.cpu.statFuBusy::SimdCvt                    215      0.00%     67.87% # attempts to use FU when none available (Count)
system.cpu.statFuBusy::SimdMisc                    60      0.00%     67.87% # attempts to use FU when none available (Count)
system.cpu.statFuBusy::SimdMult                     0      0.00%     67.87% # attempts to use FU when none available (Count)
system.cpu.statFuBusy::SimdMultAcc                  0      0.00%     67.87% # attempts to use FU when none available (Count)
system.cpu.statFuBusy::SimdMatMultAcc               0      0.00%     67.87% # attempts to use FU when none available (Count)
system.cpu.statFuBusy::SimdShift                   37      0.00%     67.87% # attempts to use FU when none available (Count)
system.cpu.statFuBusy::SimdShiftAcc                 0      0.00%     67.87% # attempts to use FU when none available (Count)
system.cpu.statFuBusy::SimdDiv                      0      0.00%     67.87% # attempts to use FU when none available (Count)
system.cpu.statFuBusy::SimdSqrt                     0      0.00%     67.87% # attempts to use FU when none available (Count)
system.cpu.statFuBusy::SimdFloatAdd                 0      0.00%     67.87% # attempts to use FU when none available (Count)
system.cpu.statFuBusy::SimdFloatAlu                 0      0.00%     67.87% # attempts to use FU when none available (Count)
system.cpu.statFuBusy::SimdFloatCmp                 0      0.00%     67.87% # attempts to use FU when none available (Count)
system.cpu.statFuBusy::SimdFloatCvt                 0      0.00%     67.87% # attempts to use FU when none available (Count)
system.cpu.statFuBusy::SimdFloatDiv                 0      0.00%     67.87% # attempts to use FU when none available (Count)
system.cpu.statFuBusy::SimdFloatMisc                0      0.00%     67.87% # attempts to use FU when none available (Count)
system.cpu.statFuBusy::SimdFloatMult                0      0.00%     67.87% # attempts to use FU when none available (Count)
system.cpu.statFuBusy::SimdFloatMultAcc             0      0.00%     67.87% # attempts to use FU when none available (Count)
system.cpu.statFuBusy::SimdFloatMatMultAcc            0      0.00%     67.87% # attempts to use FU when none available (Count)
system.cpu.statFuBusy::SimdFloatSqrt                0      0.00%     67.87% # attempts to use FU when none available (Count)
system.cpu.statFuBusy::SimdReduceAdd                0      0.00%     67.87% # attempts to use FU when none available (Count)
system.cpu.statFuBusy::SimdReduceAlu                0      0.00%     67.87% # attempts to use FU when none available (Count)
system.cpu.statFuBusy::SimdReduceCmp                0      0.00%     67.87% # attempts to use FU when none available (Count)
system.cpu.statFuBusy::SimdFloatReduceAdd            0      0.00%     67.87% # attempts to use FU when none available (Count)
system.cpu.statFuBusy::SimdFloatReduceCmp            0      0.00%     67.87% # attempts to use FU when none available (Count)
system.cpu.statFuBusy::SimdAes                      0      0.00%     67.87% # attempts to use FU when none available (Count)
system.cpu.statFuBusy::SimdAesMix                   0      0.00%     67.87% # attempts to use FU when none available (Count)
system.cpu.statFuBusy::SimdSha1Hash                 0      0.00%     67.87% # attempts to use FU when none available (Count)
system.cpu.statFuBusy::SimdSha1Hash2                0      0.00%     67.87% # attempts to use FU when none available (Count)
system.cpu.statFuBusy::SimdSha256Hash               0      0.00%     67.87% # attempts to use FU when none available (Count)
system.cpu.statFuBusy::SimdSha256Hash2              0      0.00%     67.87% # attempts to use FU when none available (Count)
system.cpu.statFuBusy::SimdShaSigma2                0      0.00%     67.87% # attempts to use FU when none available (Count)
system.cpu.statFuBusy::SimdShaSigma3                0      0.00%     67.87% # attempts to use FU when none available (Count)
system.cpu.statFuBusy::SimdPredAlu                  0      0.00%     67.87% # attempts to use FU when none available (Count)
system.cpu.statFuBusy::Matrix                       0      0.00%     67.87% # attempts to use FU when none available (Count)
system.cpu.statFuBusy::MatrixMov                    0      0.00%     67.87% # attempts to use FU when none available (Count)
system.cpu.statFuBusy::MatrixOP                     0      0.00%     67.87% # attempts to use FU when none available (Count)
system.cpu.statFuBusy::MemRead                3202626     23.88%     91.76% # attempts to use FU when none available (Count)
system.cpu.statFuBusy::MemWrite                531182      3.96%     95.72% # attempts to use FU when none available (Count)
system.cpu.statFuBusy::FloatMemRead            530735      3.96%     99.68% # attempts to use FU when none available (Count)
system.cpu.statFuBusy::FloatMemWrite            43357      0.32%    100.00% # attempts to use FU when none available (Count)
system.cpu.statFuBusy::IprAccess                    0      0.00%    100.00% # attempts to use FU when none available (Count)
system.cpu.statFuBusy::InstPrefetch                 0      0.00%    100.00% # attempts to use FU when none available (Count)
system.cpu.statFuBusy::SimdUnitStrideLoad            0      0.00%    100.00% # attempts to use FU when none available (Count)
system.cpu.statFuBusy::SimdUnitStrideStore            0      0.00%    100.00% # attempts to use FU when none available (Count)
system.cpu.statFuBusy::SimdUnitStrideMaskLoad            0      0.00%    100.00% # attempts to use FU when none available (Count)
system.cpu.statFuBusy::SimdUnitStrideMaskStore            0      0.00%    100.00% # attempts to use FU when none available (Count)
system.cpu.statFuBusy::SimdStridedLoad              0      0.00%    100.00% # attempts to use FU when none available (Count)
system.cpu.statFuBusy::SimdStridedStore             0      0.00%    100.00% # attempts to use FU when none available (Count)
system.cpu.statFuBusy::SimdIndexedLoad              0      0.00%    100.00% # attempts to use FU when none available (Count)
system.cpu.statFuBusy::SimdIndexedStore             0      0.00%    100.00% # attempts to use FU when none available (Count)
system.cpu.statFuBusy::SimdWholeRegisterLoad            0      0.00%    100.00% # attempts to use FU when none available (Count)
system.cpu.statFuBusy::SimdWholeRegisterStore            0      0.00%    100.00% # attempts to use FU when none available (Count)
system.cpu.statFuBusy::SimdUnitStrideFaultOnlyFirstLoad            0      0.00%    100.00% # attempts to use FU when none available (Count)
system.cpu.statFuBusy::SimdUnitStrideSegmentedLoad            0      0.00%    100.00% # attempts to use FU when none available (Count)
system.cpu.statFuBusy::SimdUnitStrideSegmentedStore            0      0.00%    100.00% # attempts to use FU when none available (Count)
system.cpu.statFuBusy::SimdExt                      0      0.00%    100.00% # attempts to use FU when none available (Count)
system.cpu.statFuBusy::SimdFloatExt                 0      0.00%    100.00% # attempts to use FU when none available (Count)
system.cpu.statFuBusy::SimdConfig                   0      0.00%    100.00% # attempts to use FU when none available (Count)
system.cpu.statIssuedInstType_0::No_OpClass      1110040      0.23%      0.23% # Number of instructions issued per FU type, per thread (Count)
system.cpu.statIssuedInstType_0::IntAlu     366085514     75.45%     75.68% # Number of instructions issued per FU type, per thread (Count)
system.cpu.statIssuedInstType_0::IntMult     11176978      2.30%     77.98% # Number of instructions issued per FU type, per thread (Count)
system.cpu.statIssuedInstType_0::IntDiv       5520197      1.14%     79.12% # Number of instructions issued per FU type, per thread (Count)
system.cpu.statIssuedInstType_0::FloatAdd        11881      0.00%     79.12% # Number of instructions issued per FU type, per thread (Count)
system.cpu.statIssuedInstType_0::FloatCmp            0      0.00%     79.12% # Number of instructions issued per FU type, per thread (Count)
system.cpu.statIssuedInstType_0::FloatCvt         1503      0.00%     79.12% # Number of instructions issued per FU type, per thread (Count)
system.cpu.statIssuedInstType_0::FloatMult            0      0.00%     79.12% # Number of instructions issued per FU type, per thread (Count)
system.cpu.statIssuedInstType_0::FloatMultAcc            0      0.00%     79.12% # Number of instructions issued per FU type, per thread (Count)
system.cpu.statIssuedInstType_0::FloatDiv            0      0.00%     79.12% # Number of instructions issued per FU type, per thread (Count)
system.cpu.statIssuedInstType_0::FloatMisc            0      0.00%     79.12% # Number of instructions issued per FU type, per thread (Count)
system.cpu.statIssuedInstType_0::FloatSqrt            0      0.00%     79.12% # Number of instructions issued per FU type, per thread (Count)
system.cpu.statIssuedInstType_0::SimdAdd         7762      0.00%     79.12% # Number of instructions issued per FU type, per thread (Count)
system.cpu.statIssuedInstType_0::SimdAddAcc            0      0.00%     79.12% # Number of instructions issued per FU type, per thread (Count)
system.cpu.statIssuedInstType_0::SimdAlu        20325      0.00%     79.13% # Number of instructions issued per FU type, per thread (Count)
system.cpu.statIssuedInstType_0::SimdCmp           47      0.00%     79.13% # Number of instructions issued per FU type, per thread (Count)
system.cpu.statIssuedInstType_0::SimdCvt        17538      0.00%     79.13% # Number of instructions issued per FU type, per thread (Count)
system.cpu.statIssuedInstType_0::SimdMisc        28907      0.01%     79.14% # Number of instructions issued per FU type, per thread (Count)
system.cpu.statIssuedInstType_0::SimdMult            0      0.00%     79.14% # Number of instructions issued per FU type, per thread (Count)
system.cpu.statIssuedInstType_0::SimdMultAcc            0      0.00%     79.14% # Number of instructions issued per FU type, per thread (Count)
system.cpu.statIssuedInstType_0::SimdMatMultAcc            0      0.00%     79.14% # Number of instructions issued per FU type, per thread (Count)
system.cpu.statIssuedInstType_0::SimdShift         3730      0.00%     79.14% # Number of instructions issued per FU type, per thread (Count)
system.cpu.statIssuedInstType_0::SimdShiftAcc            0      0.00%     79.14% # Number of instructions issued per FU type, per thread (Count)
system.cpu.statIssuedInstType_0::SimdDiv            0      0.00%     79.14% # Number of instructions issued per FU type, per thread (Count)
system.cpu.statIssuedInstType_0::SimdSqrt            0      0.00%     79.14% # Number of instructions issued per FU type, per thread (Count)
system.cpu.statIssuedInstType_0::SimdFloatAdd          467      0.00%     79.14% # Number of instructions issued per FU type, per thread (Count)
system.cpu.statIssuedInstType_0::SimdFloatAlu            0      0.00%     79.14% # Number of instructions issued per FU type, per thread (Count)
system.cpu.statIssuedInstType_0::SimdFloatCmp            0      0.00%     79.14% # Number of instructions issued per FU type, per thread (Count)
system.cpu.statIssuedInstType_0::SimdFloatCvt          816      0.00%     79.14% # Number of instructions issued per FU type, per thread (Count)
system.cpu.statIssuedInstType_0::SimdFloatDiv          139      0.00%     79.14% # Number of instructions issued per FU type, per thread (Count)
system.cpu.statIssuedInstType_0::SimdFloatMisc            0      0.00%     79.14% # Number of instructions issued per FU type, per thread (Count)
system.cpu.statIssuedInstType_0::SimdFloatMult          218      0.00%     79.14% # Number of instructions issued per FU type, per thread (Count)
system.cpu.statIssuedInstType_0::SimdFloatMultAcc            0      0.00%     79.14% # Number of instructions issued per FU type, per thread (Count)
system.cpu.statIssuedInstType_0::SimdFloatMatMultAcc            0      0.00%     79.14% # Number of instructions issued per FU type, per thread (Count)
system.cpu.statIssuedInstType_0::SimdFloatSqrt           54      0.00%     79.14% # Number of instructions issued per FU type, per thread (Count)
system.cpu.statIssuedInstType_0::SimdReduceAdd            0      0.00%     79.14% # Number of instructions issued per FU type, per thread (Count)
system.cpu.statIssuedInstType_0::SimdReduceAlu            0      0.00%     79.14% # Number of instructions issued per FU type, per thread (Count)
system.cpu.statIssuedInstType_0::SimdReduceCmp            0      0.00%     79.14% # Number of instructions issued per FU type, per thread (Count)
system.cpu.statIssuedInstType_0::SimdFloatReduceAdd            0      0.00%     79.14% # Number of instructions issued per FU type, per thread (Count)
system.cpu.statIssuedInstType_0::SimdFloatReduceCmp            0      0.00%     79.14% # Number of instructions issued per FU type, per thread (Count)
system.cpu.statIssuedInstType_0::SimdAes            0      0.00%     79.14% # Number of instructions issued per FU type, per thread (Count)
system.cpu.statIssuedInstType_0::SimdAesMix            0      0.00%     79.14% # Number of instructions issued per FU type, per thread (Count)
system.cpu.statIssuedInstType_0::SimdSha1Hash            0      0.00%     79.14% # Number of instructions issued per FU type, per thread (Count)
system.cpu.statIssuedInstType_0::SimdSha1Hash2            0      0.00%     79.14% # Number of instructions issued per FU type, per thread (Count)
system.cpu.statIssuedInstType_0::SimdSha256Hash            0      0.00%     79.14% # Number of instructions issued per FU type, per thread (Count)
system.cpu.statIssuedInstType_0::SimdSha256Hash2            0      0.00%     79.14% # Number of instructions issued per FU type, per thread (Count)
system.cpu.statIssuedInstType_0::SimdShaSigma2            0      0.00%     79.14% # Number of instructions issued per FU type, per thread (Count)
system.cpu.statIssuedInstType_0::SimdShaSigma3            0      0.00%     79.14% # Number of instructions issued per FU type, per thread (Count)
system.cpu.statIssuedInstType_0::SimdPredAlu            0      0.00%     79.14% # Number of instructions issued per FU type, per thread (Count)
system.cpu.statIssuedInstType_0::Matrix             0      0.00%     79.14% # Number of instructions issued per FU type, per thread (Count)
system.cpu.statIssuedInstType_0::MatrixMov            0      0.00%     79.14% # Number of instructions issued per FU type, per thread (Count)
system.cpu.statIssuedInstType_0::MatrixOP            0      0.00%     79.14% # Number of instructions issued per FU type, per thread (Count)
system.cpu.statIssuedInstType_0::MemRead     65730150     13.55%     92.68% # Number of instructions issued per FU type, per thread (Count)
system.cpu.statIssuedInstType_0::MemWrite     23078551      4.76%     97.44% # Number of instructions issued per FU type, per thread (Count)
system.cpu.statIssuedInstType_0::FloatMemRead      6848587      1.41%     98.85% # Number of instructions issued per FU type, per thread (Count)
system.cpu.statIssuedInstType_0::FloatMemWrite      5566306      1.15%    100.00% # Number of instructions issued per FU type, per thread (Count)
system.cpu.statIssuedInstType_0::IprAccess            0      0.00%    100.00% # Number of instructions issued per FU type, per thread (Count)
system.cpu.statIssuedInstType_0::InstPrefetch            0      0.00%    100.00% # Number of instructions issued per FU type, per thread (Count)
system.cpu.statIssuedInstType_0::SimdUnitStrideLoad            0      0.00%    100.00% # Number of instructions issued per FU type, per thread (Count)
system.cpu.statIssuedInstType_0::SimdUnitStrideStore            0      0.00%    100.00% # Number of instructions issued per FU type, per thread (Count)
system.cpu.statIssuedInstType_0::SimdUnitStrideMaskLoad            0      0.00%    100.00% # Number of instructions issued per FU type, per thread (Count)
system.cpu.statIssuedInstType_0::SimdUnitStrideMaskStore            0      0.00%    100.00% # Number of instructions issued per FU type, per thread (Count)
system.cpu.statIssuedInstType_0::SimdStridedLoad            0      0.00%    100.00% # Number of instructions issued per FU type, per thread (Count)
system.cpu.statIssuedInstType_0::SimdStridedStore            0      0.00%    100.00% # Number of instructions issued per FU type, per thread (Count)
system.cpu.statIssuedInstType_0::SimdIndexedLoad            0      0.00%    100.00% # Number of instructions issued per FU type, per thread (Count)
system.cpu.statIssuedInstType_0::SimdIndexedStore            0      0.00%    100.00% # Number of instructions issued per FU type, per thread (Count)
system.cpu.statIssuedInstType_0::SimdWholeRegisterLoad            0      0.00%    100.00% # Number of instructions issued per FU type, per thread (Count)
system.cpu.statIssuedInstType_0::SimdWholeRegisterStore            0      0.00%    100.00% # Number of instructions issued per FU type, per thread (Count)
system.cpu.statIssuedInstType_0::SimdUnitStrideFaultOnlyFirstLoad            0      0.00%    100.00% # Number of instructions issued per FU type, per thread (Count)
system.cpu.statIssuedInstType_0::SimdUnitStrideSegmentedLoad            0      0.00%    100.00% # Number of instructions issued per FU type, per thread (Count)
system.cpu.statIssuedInstType_0::SimdUnitStrideSegmentedStore            0      0.00%    100.00% # Number of instructions issued per FU type, per thread (Count)
system.cpu.statIssuedInstType_0::SimdExt            0      0.00%    100.00% # Number of instructions issued per FU type, per thread (Count)
system.cpu.statIssuedInstType_0::SimdFloatExt            0      0.00%    100.00% # Number of instructions issued per FU type, per thread (Count)
system.cpu.statIssuedInstType_0::SimdConfig            0      0.00%    100.00% # Number of instructions issued per FU type, per thread (Count)
system.cpu.statIssuedInstType_0::total      485209710                       # Number of instructions issued per FU type, per thread (Count)
system.cpu.issueRate                         3.078430                       # Inst issue rate ((Count/Cycle))
system.cpu.fuBusy                            13409156                       # FU busy when requested (Count)
system.cpu.fuBusyRate                        0.027636                       # FU busy rate (busy events/executed inst) ((Count/Count))
system.cpu.intInstQueueReads               1118910288                       # Number of integer instruction queue reads (Count)
system.cpu.intInstQueueWrites               677209511                       # Number of integer instruction queue writes (Count)
system.cpu.intInstQueueWakeupAccesses       459023489                       # Number of integer instruction queue wakeup accesses (Count)
system.cpu.fpInstQueueReads                  25767977                       # Number of floating instruction queue reads (Count)
system.cpu.fpInstQueueWrites                 25137716                       # Number of floating instruction queue writes (Count)
system.cpu.fpInstQueueWakeupAccesses         11205658                       # Number of floating instruction queue wakeup accesses (Count)
system.cpu.vecInstQueueReads                        0                       # Number of vector instruction queue reads (Count)
system.cpu.vecInstQueueWrites                       0                       # Number of vector instruction queue writes (Count)
system.cpu.vecInstQueueWakeupAccesses               0                       # Number of vector instruction queue wakeup accesses (Count)
system.cpu.intAluAccesses                   484418160                       # Number of integer alu accesses (Count)
system.cpu.fpAluAccesses                     13090666                       # Number of floating point alu accesses (Count)
system.cpu.vecAluAccesses                           0                       # Number of vector alu accesses (Count)
system.cpu.numSquashedInsts                   8947699                       # Number of squashed instructions skipped in execute (Count)
system.cpu.numSwp                                   0                       # Number of swp insts executed (Count)
system.cpu.timesIdled                            4420                       # Number of times that the entire CPU went into an idle state and unscheduled itself (Count)
system.cpu.idleCycles                           15588                       # Total number of cycles that the CPU has spent unscheduled due to idling (Cycle)
system.cpu.MemDepUnit__0.insertedLoads       80817871                       # Number of loads inserted to the mem dependence unit. (Count)
system.cpu.MemDepUnit__0.insertedStores      36197582                       # Number of stores inserted to the mem dependence unit. (Count)
system.cpu.MemDepUnit__0.conflictingLoads     12752532                       # Number of conflicting loads. (Count)
system.cpu.MemDepUnit__0.conflictingStores     11072206                       # Number of conflicting stores. (Count)
system.cpu.MemDepUnit__1.insertedLoads              0                       # Number of loads inserted to the mem dependence unit. (Count)
system.cpu.MemDepUnit__1.insertedStores             0                       # Number of stores inserted to the mem dependence unit. (Count)
system.cpu.MemDepUnit__1.conflictingLoads            0                       # Number of conflicting loads. (Count)
system.cpu.MemDepUnit__1.conflictingStores            0                       # Number of conflicting stores. (Count)
system.cpu.MemDepUnit__2.insertedLoads              0                       # Number of loads inserted to the mem dependence unit. (Count)
system.cpu.MemDepUnit__2.insertedStores             0                       # Number of stores inserted to the mem dependence unit. (Count)
system.cpu.MemDepUnit__2.conflictingLoads            0                       # Number of conflicting loads. (Count)
system.cpu.MemDepUnit__2.conflictingStores            0                       # Number of conflicting stores. (Count)
system.cpu.MemDepUnit__3.insertedLoads              0                       # Number of loads inserted to the mem dependence unit. (Count)
system.cpu.MemDepUnit__3.insertedStores             0                       # Number of stores inserted to the mem dependence unit. (Count)
system.cpu.MemDepUnit__3.conflictingLoads            0                       # Number of conflicting loads. (Count)
system.cpu.MemDepUnit__3.conflictingStores            0                       # Number of conflicting stores. (Count)
system.cpu.branchPred.lookups_0::NoBranch         2122      0.00%      0.00% # Number of BP lookups (Count)
system.cpu.branchPred.lookups_0::Return        550239      0.98%      0.98% # Number of BP lookups (Count)
system.cpu.branchPred.lookups_0::CallDirect       606446      1.08%      2.06% # Number of BP lookups (Count)
system.cpu.branchPred.lookups_0::CallIndirect         2356      0.00%      2.06% # Number of BP lookups (Count)
system.cpu.branchPred.lookups_0::DirectCond     52241380     92.72%     94.78% # Number of BP lookups (Count)
system.cpu.branchPred.lookups_0::DirectUncond      2915990      5.18%     99.96% # Number of BP lookups (Count)
system.cpu.branchPred.lookups_0::IndirectCond            0      0.00%     99.96% # Number of BP lookups (Count)
system.cpu.branchPred.lookups_0::IndirectUncond        22848      0.04%    100.00% # Number of BP lookups (Count)
system.cpu.branchPred.lookups_0::total       56341381                       # Number of BP lookups (Count)
system.cpu.branchPred.squashes_0::NoBranch         1841      0.01%      0.01% # Number of branches that got squashed (completely removed) as an earlier branch was mispredicted. (Count)
system.cpu.branchPred.squashes_0::Return       167264      0.64%      0.65% # Number of branches that got squashed (completely removed) as an earlier branch was mispredicted. (Count)
system.cpu.branchPred.squashes_0::CallDirect       224993      0.86%      1.51% # Number of branches that got squashed (completely removed) as an earlier branch was mispredicted. (Count)
system.cpu.branchPred.squashes_0::CallIndirect          828      0.00%      1.52% # Number of branches that got squashed (completely removed) as an earlier branch was mispredicted. (Count)
system.cpu.branchPred.squashes_0::DirectCond     24329911     93.34%     94.85% # Number of branches that got squashed (completely removed) as an earlier branch was mispredicted. (Count)
system.cpu.branchPred.squashes_0::DirectUncond      1331015      5.11%     99.96% # Number of branches that got squashed (completely removed) as an earlier branch was mispredicted. (Count)
system.cpu.branchPred.squashes_0::IndirectCond            0      0.00%     99.96% # Number of branches that got squashed (completely removed) as an earlier branch was mispredicted. (Count)
system.cpu.branchPred.squashes_0::IndirectUncond        11022      0.04%    100.00% # Number of branches that got squashed (completely removed) as an earlier branch was mispredicted. (Count)
system.cpu.branchPred.squashes_0::total      26066874                       # Number of branches that got squashed (completely removed) as an earlier branch was mispredicted. (Count)
system.cpu.branchPred.corrected_0::NoBranch          438      0.01%      0.01% # Number of branches that got corrected but not yet commited. Branches get corrected by decode or after execute. Also a branch misprediction can be detected out-of-order. Therefore, a corrected branch might not end up beeing committed in case an even earlier branch was mispredicted (Count)
system.cpu.branchPred.corrected_0::Return         1225      0.04%      0.06% # Number of branches that got corrected but not yet commited. Branches get corrected by decode or after execute. Also a branch misprediction can be detected out-of-order. Therefore, a corrected branch might not end up beeing committed in case an even earlier branch was mispredicted (Count)
system.cpu.branchPred.corrected_0::CallDirect         3552      0.12%      0.18% # Number of branches that got corrected but not yet commited. Branches get corrected by decode or after execute. Also a branch misprediction can be detected out-of-order. Therefore, a corrected branch might not end up beeing committed in case an even earlier branch was mispredicted (Count)
system.cpu.branchPred.corrected_0::CallIndirect          307      0.01%      0.19% # Number of branches that got corrected but not yet commited. Branches get corrected by decode or after execute. Also a branch misprediction can be detected out-of-order. Therefore, a corrected branch might not end up beeing committed in case an even earlier branch was mispredicted (Count)
system.cpu.branchPred.corrected_0::DirectCond      2940104     99.69%     99.87% # Number of branches that got corrected but not yet commited. Branches get corrected by decode or after execute. Also a branch misprediction can be detected out-of-order. Therefore, a corrected branch might not end up beeing committed in case an even earlier branch was mispredicted (Count)
system.cpu.branchPred.corrected_0::DirectUncond         1487      0.05%     99.93% # Number of branches that got corrected but not yet commited. Branches get corrected by decode or after execute. Also a branch misprediction can be detected out-of-order. Therefore, a corrected branch might not end up beeing committed in case an even earlier branch was mispredicted (Count)
system.cpu.branchPred.corrected_0::IndirectCond            0      0.00%     99.93% # Number of branches that got corrected but not yet commited. Branches get corrected by decode or after execute. Also a branch misprediction can be detected out-of-order. Therefore, a corrected branch might not end up beeing committed in case an even earlier branch was mispredicted (Count)
system.cpu.branchPred.corrected_0::IndirectUncond         2206      0.07%    100.00% # Number of branches that got corrected but not yet commited. Branches get corrected by decode or after execute. Also a branch misprediction can be detected out-of-order. Therefore, a corrected branch might not end up beeing committed in case an even earlier branch was mispredicted (Count)
system.cpu.branchPred.corrected_0::total      2949319                       # Number of branches that got corrected but not yet commited. Branches get corrected by decode or after execute. Also a branch misprediction can be detected out-of-order. Therefore, a corrected branch might not end up beeing committed in case an even earlier branch was mispredicted (Count)
system.cpu.branchPred.earlyResteers_0::NoBranch            0                       # Number of branches that got redirected after decode. (Count)
system.cpu.branchPred.earlyResteers_0::Return            0                       # Number of branches that got redirected after decode. (Count)
system.cpu.branchPred.earlyResteers_0::CallDirect            0                       # Number of branches that got redirected after decode. (Count)
system.cpu.branchPred.earlyResteers_0::CallIndirect            0                       # Number of branches that got redirected after decode. (Count)
system.cpu.branchPred.earlyResteers_0::DirectCond            0                       # Number of branches that got redirected after decode. (Count)
system.cpu.branchPred.earlyResteers_0::DirectUncond            0                       # Number of branches that got redirected after decode. (Count)
system.cpu.branchPred.earlyResteers_0::IndirectCond            0                       # Number of branches that got redirected after decode. (Count)
system.cpu.branchPred.earlyResteers_0::IndirectUncond            0                       # Number of branches that got redirected after decode. (Count)
system.cpu.branchPred.earlyResteers_0::total            0                       # Number of branches that got redirected after decode. (Count)
system.cpu.branchPred.committed_0::NoBranch          281      0.00%      0.00% # Number of branches finally committed  (Count)
system.cpu.branchPred.committed_0::Return       382974      1.27%      1.27% # Number of branches finally committed  (Count)
system.cpu.branchPred.committed_0::CallDirect       381451      1.26%      2.53% # Number of branches finally committed  (Count)
system.cpu.branchPred.committed_0::CallIndirect         1528      0.01%      2.53% # Number of branches finally committed  (Count)
system.cpu.branchPred.committed_0::DirectCond     27911469     92.19%     94.73% # Number of branches finally committed  (Count)
system.cpu.branchPred.committed_0::DirectUncond      1584975      5.24%     99.96% # Number of branches finally committed  (Count)
system.cpu.branchPred.committed_0::IndirectCond            0      0.00%     99.96% # Number of branches finally committed  (Count)
system.cpu.branchPred.committed_0::IndirectUncond        11826      0.04%    100.00% # Number of branches finally committed  (Count)
system.cpu.branchPred.committed_0::total     30274504                       # Number of branches finally committed  (Count)
system.cpu.branchPred.mispredicted_0::NoBranch          281      0.01%      0.01% # Number of committed branches that were mispredicted. (Count)
system.cpu.branchPred.mispredicted_0::Return         1209      0.04%      0.05% # Number of committed branches that were mispredicted. (Count)
system.cpu.branchPred.mispredicted_0::CallDirect         2240      0.08%      0.13% # Number of committed branches that were mispredicted. (Count)
system.cpu.branchPred.mispredicted_0::CallIndirect          276      0.01%      0.14% # Number of committed branches that were mispredicted. (Count)
system.cpu.branchPred.mispredicted_0::DirectCond      2812266     99.75%     99.90% # Number of committed branches that were mispredicted. (Count)
system.cpu.branchPred.mispredicted_0::DirectUncond          890      0.03%     99.93% # Number of committed branches that were mispredicted. (Count)
system.cpu.branchPred.mispredicted_0::IndirectCond            0      0.00%     99.93% # Number of committed branches that were mispredicted. (Count)
system.cpu.branchPred.mispredicted_0::IndirectUncond         2055      0.07%    100.00% # Number of committed branches that were mispredicted. (Count)
system.cpu.branchPred.mispredicted_0::total      2819217                       # Number of committed branches that were mispredicted. (Count)
system.cpu.branchPred.targetProvider_0::NoTarget     22356672     39.68%     39.68% # The component providing the target for taken branches (Count)
system.cpu.branchPred.targetProvider_0::BTB     33421255     59.32%     99.00% # The component providing the target for taken branches (Count)
system.cpu.branchPred.targetProvider_0::RAS       550238      0.98%     99.98% # The component providing the target for taken branches (Count)
system.cpu.branchPred.targetProvider_0::Indirect        13216      0.02%    100.00% # The component providing the target for taken branches (Count)
system.cpu.branchPred.targetProvider_0::total     56341381                       # The component providing the target for taken branches (Count)
system.cpu.branchPred.targetWrong_0::NoBranch      1107636     39.06%     39.06% # Number of branches where the target was incorrect or not available at prediction time. (Count)
system.cpu.branchPred.targetWrong_0::Return      1726163     60.88%     99.94% # Number of branches where the target was incorrect or not available at prediction time. (Count)
system.cpu.branchPred.targetWrong_0::CallDirect         1225      0.04%     99.98% # Number of branches where the target was incorrect or not available at prediction time. (Count)
system.cpu.branchPred.targetWrong_0::CallIndirect          504      0.02%    100.00% # Number of branches where the target was incorrect or not available at prediction time. (Count)
system.cpu.branchPred.targetWrong_0::DirectCond            0      0.00%    100.00% # Number of branches where the target was incorrect or not available at prediction time. (Count)
system.cpu.branchPred.targetWrong_0::DirectUncond            0      0.00%    100.00% # Number of branches where the target was incorrect or not available at prediction time. (Count)
system.cpu.branchPred.targetWrong_0::IndirectCond            0      0.00%    100.00% # Number of branches where the target was incorrect or not available at prediction time. (Count)
system.cpu.branchPred.targetWrong_0::IndirectUncond            0      0.00%    100.00% # Number of branches where the target was incorrect or not available at prediction time. (Count)
system.cpu.branchPred.targetWrong_0::total      2835528                       # Number of branches where the target was incorrect or not available at prediction time. (Count)
system.cpu.branchPred.condPredicted          52243502                       # Number of conditional branches predicted (Count)
system.cpu.branchPred.condPredictedTaken     29932935                       # Number of conditional branches predicted as taken (Count)
system.cpu.branchPred.condIncorrect           2949319                       # Number of conditional branches incorrect (Count)
system.cpu.branchPred.predTakenBTBMiss           6443                       # Number of branches predicted taken but missed in BTB (Count)
system.cpu.branchPred.NotTakenMispredicted      1153503                       # Number branches predicted 'not taken' but turned out to be taken (Count)
system.cpu.branchPred.TakenMispredicted       1795816                       # Number branches predicted taken but are actually not taken (Count)
system.cpu.branchPred.BTBLookups             56341381                       # Number of BTB lookups (Count)
system.cpu.branchPred.BTBUpdates              1149327                       # Number of BTB updates (Count)
system.cpu.branchPred.BTBHits                53267401                       # Number of BTB hits (Count)
system.cpu.branchPred.BTBHitRatio            0.945440                       # BTB Hit Ratio (Ratio)
system.cpu.branchPred.BTBMispredicted            7884                       # Number BTB mispredictions. No target found or target wrong (Count)
system.cpu.branchPred.indirectLookups           25204                       # Number of indirect predictor lookups. (Count)
system.cpu.branchPred.indirectHits              13216                       # Number of indirect target hits. (Count)
system.cpu.branchPred.indirectMisses            11988                       # Number of indirect misses. (Count)
system.cpu.branchPred.indirectMispredicted            0                       # Number of mispredicted indirect branches. (Count)
system.cpu.branchPred.btb.lookups::NoBranch         2122      0.00%      0.00% # Number of BTB lookups (Count)
system.cpu.branchPred.btb.lookups::Return       550239      0.98%      0.98% # Number of BTB lookups (Count)
system.cpu.branchPred.btb.lookups::CallDirect       606446      1.08%      2.06% # Number of BTB lookups (Count)
system.cpu.branchPred.btb.lookups::CallIndirect         2356      0.00%      2.06% # Number of BTB lookups (Count)
system.cpu.branchPred.btb.lookups::DirectCond     52241380     92.72%     94.78% # Number of BTB lookups (Count)
system.cpu.branchPred.btb.lookups::DirectUncond      2915990      5.18%     99.96% # Number of BTB lookups (Count)
system.cpu.branchPred.btb.lookups::IndirectCond            0      0.00%     99.96% # Number of BTB lookups (Count)
system.cpu.branchPred.btb.lookups::IndirectUncond        22848      0.04%    100.00% # Number of BTB lookups (Count)
system.cpu.branchPred.btb.lookups::total     56341381                       # Number of BTB lookups (Count)
system.cpu.branchPred.btb.misses::NoBranch          377      0.01%      0.01% # Number of BTB misses (Count)
system.cpu.branchPred.btb.misses::Return       549763     17.88%     17.90% # Number of BTB misses (Count)
system.cpu.branchPred.btb.misses::CallDirect         6514      0.21%     18.11% # Number of BTB misses (Count)
system.cpu.branchPred.btb.misses::CallIndirect         2356      0.08%     18.19% # Number of BTB misses (Count)
system.cpu.branchPred.btb.misses::DirectCond      2487844     80.93%     99.12% # Number of BTB misses (Count)
system.cpu.branchPred.btb.misses::DirectUncond         4278      0.14%     99.26% # Number of BTB misses (Count)
system.cpu.branchPred.btb.misses::IndirectCond            0      0.00%     99.26% # Number of BTB misses (Count)
system.cpu.branchPred.btb.misses::IndirectUncond        22848      0.74%    100.00% # Number of BTB misses (Count)
system.cpu.branchPred.btb.misses::total       3073980                       # Number of BTB misses (Count)
system.cpu.branchPred.btb.updates::NoBranch            0      0.00%      0.00% # Number of BTB updates (Count)
system.cpu.branchPred.btb.updates::Return            0      0.00%      0.00% # Number of BTB updates (Count)
system.cpu.branchPred.btb.updates::CallDirect         3552      0.31%      0.31% # Number of BTB updates (Count)
system.cpu.branchPred.btb.updates::CallIndirect            0      0.00%      0.31% # Number of BTB updates (Count)
system.cpu.branchPred.btb.updates::DirectCond      1144288     99.56%     99.87% # Number of BTB updates (Count)
system.cpu.branchPred.btb.updates::DirectUncond         1487      0.13%    100.00% # Number of BTB updates (Count)
system.cpu.branchPred.btb.updates::IndirectCond            0      0.00%    100.00% # Number of BTB updates (Count)
system.cpu.branchPred.btb.updates::IndirectUncond            0      0.00%    100.00% # Number of BTB updates (Count)
system.cpu.branchPred.btb.updates::total      1149327                       # Number of BTB updates (Count)
system.cpu.branchPred.btb.mispredict::NoBranch            0      0.00%      0.00% # Number of BTB mispredictions. No target found or target wrong. (Count)
system.cpu.branchPred.btb.mispredict::Return            0      0.00%      0.00% # Number of BTB mispredictions. No target found or target wrong. (Count)
system.cpu.branchPred.btb.mispredict::CallDirect         3552      0.31%      0.31% # Number of BTB mispredictions. No target found or target wrong. (Count)
system.cpu.branchPred.btb.mispredict::CallIndirect            0      0.00%      0.31% # Number of BTB mispredictions. No target found or target wrong. (Count)
system.cpu.branchPred.btb.mispredict::DirectCond      1144288     99.56%     99.87% # Number of BTB mispredictions. No target found or target wrong. (Count)
system.cpu.branchPred.btb.mispredict::DirectUncond         1487      0.13%    100.00% # Number of BTB mispredictions. No target found or target wrong. (Count)
system.cpu.branchPred.btb.mispredict::IndirectCond            0      0.00%    100.00% # Number of BTB mispredictions. No target found or target wrong. (Count)
system.cpu.branchPred.btb.mispredict::IndirectUncond            0      0.00%    100.00% # Number of BTB mispredictions. No target found or target wrong. (Count)
system.cpu.branchPred.btb.mispredict::total      1149327                       # Number of BTB mispredictions. No target found or target wrong. (Count)
system.cpu.branchPred.btb.power_state.pwrStateResidencyTicks::UNDEFINED 2101493434684                       # Cumulative time (in ticks) in various power states (Tick)
system.cpu.branchPred.indirectBranchPred.lookups        25204                       # Number of lookups (Count)
system.cpu.branchPred.indirectBranchPred.hits        13216                       # Number of hits of a tag (Count)
system.cpu.branchPred.indirectBranchPred.misses        11988                       # Number of misses (Count)
system.cpu.branchPred.indirectBranchPred.targetRecords         2513                       # Number of targets that where recorded/installed in the cache (Count)
system.cpu.branchPred.indirectBranchPred.indirectRecords        27717                       # Number of indirect branches/calls recorded in the indirect hist (Count)
system.cpu.branchPred.indirectBranchPred.speculativeOverflows            1                       # Number of times more than the allowed capacity for speculative branches/calls where in flight and destroy the path history (Count)
system.cpu.branchPred.ras.pushes               776066                       # Number of times a PC was pushed onto the RAS (Count)
system.cpu.branchPred.ras.pops                 776060                       # Number of times a PC was poped from the RAS (Count)
system.cpu.branchPred.ras.squashes             393085                       # Number of times the stack operation was squashed due to wrong speculation. (Count)
system.cpu.branchPred.ras.used                 382974                       # Number of times the RAS is the provider (Count)
system.cpu.branchPred.ras.correct              381765                       # Number of times the RAS is the provider and the prediction is correct (Count)
system.cpu.branchPred.ras.incorrect              1209                       # Number of times the RAS is the provider and the prediction is wrong (Count)
system.cpu.commit.commitSquashedInsts       163715491                       # The number of squashed insts skipped by commit (Count)
system.cpu.commit.commitNonSpecStalls          263842                       # The number of times commit has been forced to stall to communicate backwards (Count)
system.cpu.commit.branchMispredicts           2944169                       # The number of times a branch was mispredicted (Count)
system.cpu.commit.numCommittedDist::samples    135610944                       # Number of insts commited each cycle (Count)
system.cpu.commit.numCommittedDist::mean     2.763687                       # Number of insts commited each cycle (Count)
system.cpu.commit.numCommittedDist::stdev     3.076502                       # Number of insts commited each cycle (Count)
system.cpu.commit.numCommittedDist::underflows            0      0.00%      0.00% # Number of insts commited each cycle (Count)
system.cpu.commit.numCommittedDist::0        47690141     35.17%     35.17% # Number of insts commited each cycle (Count)
system.cpu.commit.numCommittedDist::1        23294597     17.18%     52.34% # Number of insts commited each cycle (Count)
system.cpu.commit.numCommittedDist::2        11111511      8.19%     60.54% # Number of insts commited each cycle (Count)
system.cpu.commit.numCommittedDist::3         9540887      7.04%     67.57% # Number of insts commited each cycle (Count)
system.cpu.commit.numCommittedDist::4         8232939      6.07%     73.64% # Number of insts commited each cycle (Count)
system.cpu.commit.numCommittedDist::5         2618753      1.93%     75.58% # Number of insts commited each cycle (Count)
system.cpu.commit.numCommittedDist::6         2029618      1.50%     77.07% # Number of insts commited each cycle (Count)
system.cpu.commit.numCommittedDist::7         6297309      4.64%     81.72% # Number of insts commited each cycle (Count)
system.cpu.commit.numCommittedDist::8        24795189     18.28%    100.00% # Number of insts commited each cycle (Count)
system.cpu.commit.numCommittedDist::overflows            0      0.00%    100.00% # Number of insts commited each cycle (Count)
system.cpu.commit.numCommittedDist::min_value            0                       # Number of insts commited each cycle (Count)
system.cpu.commit.numCommittedDist::max_value            8                       # Number of insts commited each cycle (Count)
system.cpu.commit.numCommittedDist::total    135610944                       # Number of insts commited each cycle (Count)
system.cpu.commit.amos                              0                       # Number of atomic instructions committed (Count)
system.cpu.commit.membars                      175252                       # Number of memory barriers committed (Count)
system.cpu.commit.functionCalls                382979                       # Number of function calls committed. (Count)
system.cpu.commit.committedInstType_0::No_OpClass       807855      0.22%      0.22% # Class of committed instruction (Count)
system.cpu.commit.committedInstType_0::IntAlu    288322189     76.93%     77.15% # Class of committed instruction (Count)
system.cpu.commit.committedInstType_0::IntMult     11049485      2.95%     80.09% # Class of committed instruction (Count)
system.cpu.commit.committedInstType_0::IntDiv      4565328      1.22%     81.31% # Class of committed instruction (Count)
system.cpu.commit.committedInstType_0::FloatAdd         9795      0.00%     81.31% # Class of committed instruction (Count)
system.cpu.commit.committedInstType_0::FloatCmp            0      0.00%     81.31% # Class of committed instruction (Count)
system.cpu.commit.committedInstType_0::FloatCvt         1424      0.00%     81.31% # Class of committed instruction (Count)
system.cpu.commit.committedInstType_0::FloatMult            0      0.00%     81.31% # Class of committed instruction (Count)
system.cpu.commit.committedInstType_0::FloatMultAcc            0      0.00%     81.31% # Class of committed instruction (Count)
system.cpu.commit.committedInstType_0::FloatDiv            0      0.00%     81.31% # Class of committed instruction (Count)
system.cpu.commit.committedInstType_0::FloatMisc            0      0.00%     81.31% # Class of committed instruction (Count)
system.cpu.commit.committedInstType_0::FloatSqrt            0      0.00%     81.31% # Class of committed instruction (Count)
system.cpu.commit.committedInstType_0::SimdAdd         6952      0.00%     81.32% # Class of committed instruction (Count)
system.cpu.commit.committedInstType_0::SimdAddAcc            0      0.00%     81.32% # Class of committed instruction (Count)
system.cpu.commit.committedInstType_0::SimdAlu        16824      0.00%     81.32% # Class of committed instruction (Count)
system.cpu.commit.committedInstType_0::SimdCmp           36      0.00%     81.32% # Class of committed instruction (Count)
system.cpu.commit.committedInstType_0::SimdCvt        15068      0.00%     81.33% # Class of committed instruction (Count)
system.cpu.commit.committedInstType_0::SimdMisc        26038      0.01%     81.33% # Class of committed instruction (Count)
system.cpu.commit.committedInstType_0::SimdMult            0      0.00%     81.33% # Class of committed instruction (Count)
system.cpu.commit.committedInstType_0::SimdMultAcc            0      0.00%     81.33% # Class of committed instruction (Count)
system.cpu.commit.committedInstType_0::SimdMatMultAcc            0      0.00%     81.33% # Class of committed instruction (Count)
system.cpu.commit.committedInstType_0::SimdShift         1961      0.00%     81.33% # Class of committed instruction (Count)
system.cpu.commit.committedInstType_0::SimdShiftAcc            0      0.00%     81.33% # Class of committed instruction (Count)
system.cpu.commit.committedInstType_0::SimdDiv            0      0.00%     81.33% # Class of committed instruction (Count)
system.cpu.commit.committedInstType_0::SimdSqrt            0      0.00%     81.33% # Class of committed instruction (Count)
system.cpu.commit.committedInstType_0::SimdFloatAdd          421      0.00%     81.33% # Class of committed instruction (Count)
system.cpu.commit.committedInstType_0::SimdFloatAlu            0      0.00%     81.33% # Class of committed instruction (Count)
system.cpu.commit.committedInstType_0::SimdFloatCmp            0      0.00%     81.33% # Class of committed instruction (Count)
system.cpu.commit.committedInstType_0::SimdFloatCvt          720      0.00%     81.33% # Class of committed instruction (Count)
system.cpu.commit.committedInstType_0::SimdFloatDiv           93      0.00%     81.33% # Class of committed instruction (Count)
system.cpu.commit.committedInstType_0::SimdFloatMisc            0      0.00%     81.33% # Class of committed instruction (Count)
system.cpu.commit.committedInstType_0::SimdFloatMult          218      0.00%     81.33% # Class of committed instruction (Count)
system.cpu.commit.committedInstType_0::SimdFloatMultAcc            0      0.00%     81.33% # Class of committed instruction (Count)
system.cpu.commit.committedInstType_0::SimdFloatMatMultAcc            0      0.00%     81.33% # Class of committed instruction (Count)
system.cpu.commit.committedInstType_0::SimdFloatSqrt           54      0.00%     81.33% # Class of committed instruction (Count)
system.cpu.commit.committedInstType_0::SimdReduceAdd            0      0.00%     81.33% # Class of committed instruction (Count)
system.cpu.commit.committedInstType_0::SimdReduceAlu            0      0.00%     81.33% # Class of committed instruction (Count)
system.cpu.commit.committedInstType_0::SimdReduceCmp            0      0.00%     81.33% # Class of committed instruction (Count)
system.cpu.commit.committedInstType_0::SimdFloatReduceAdd            0      0.00%     81.33% # Class of committed instruction (Count)
system.cpu.commit.committedInstType_0::SimdFloatReduceCmp            0      0.00%     81.33% # Class of committed instruction (Count)
system.cpu.commit.committedInstType_0::SimdAes            0      0.00%     81.33% # Class of committed instruction (Count)
system.cpu.commit.committedInstType_0::SimdAesMix            0      0.00%     81.33% # Class of committed instruction (Count)
system.cpu.commit.committedInstType_0::SimdSha1Hash            0      0.00%     81.33% # Class of committed instruction (Count)
system.cpu.commit.committedInstType_0::SimdSha1Hash2            0      0.00%     81.33% # Class of committed instruction (Count)
system.cpu.commit.committedInstType_0::SimdSha256Hash            0      0.00%     81.33% # Class of committed instruction (Count)
system.cpu.commit.committedInstType_0::SimdSha256Hash2            0      0.00%     81.33% # Class of committed instruction (Count)
system.cpu.commit.committedInstType_0::SimdShaSigma2            0      0.00%     81.33% # Class of committed instruction (Count)
system.cpu.commit.committedInstType_0::SimdShaSigma3            0      0.00%     81.33% # Class of committed instruction (Count)
system.cpu.commit.committedInstType_0::SimdPredAlu            0      0.00%     81.33% # Class of committed instruction (Count)
system.cpu.commit.committedInstType_0::Matrix            0      0.00%     81.33% # Class of committed instruction (Count)
system.cpu.commit.committedInstType_0::MatrixMov            0      0.00%     81.33% # Class of committed instruction (Count)
system.cpu.commit.committedInstType_0::MatrixOP            0      0.00%     81.33% # Class of committed instruction (Count)
system.cpu.commit.committedInstType_0::MemRead     44924617     11.99%     93.32% # Class of committed instruction (Count)
system.cpu.commit.committedInstType_0::MemWrite     16894795      4.51%     97.83% # Class of committed instruction (Count)
system.cpu.commit.committedInstType_0::FloatMemRead      4038634      1.08%     98.91% # Class of committed instruction (Count)
system.cpu.commit.committedInstType_0::FloatMemWrite      4103677      1.09%    100.00% # Class of committed instruction (Count)
system.cpu.commit.committedInstType_0::IprAccess            0      0.00%    100.00% # Class of committed instruction (Count)
system.cpu.commit.committedInstType_0::InstPrefetch            0      0.00%    100.00% # Class of committed instruction (Count)
system.cpu.commit.committedInstType_0::SimdUnitStrideLoad            0      0.00%    100.00% # Class of committed instruction (Count)
system.cpu.commit.committedInstType_0::SimdUnitStrideStore            0      0.00%    100.00% # Class of committed instruction (Count)
system.cpu.commit.committedInstType_0::SimdUnitStrideMaskLoad            0      0.00%    100.00% # Class of committed instruction (Count)
system.cpu.commit.committedInstType_0::SimdUnitStrideMaskStore            0      0.00%    100.00% # Class of committed instruction (Count)
system.cpu.commit.committedInstType_0::SimdStridedLoad            0      0.00%    100.00% # Class of committed instruction (Count)
system.cpu.commit.committedInstType_0::SimdStridedStore            0      0.00%    100.00% # Class of committed instruction (Count)
system.cpu.commit.committedInstType_0::SimdIndexedLoad            0      0.00%    100.00% # Class of committed instruction (Count)
system.cpu.commit.committedInstType_0::SimdIndexedStore            0      0.00%    100.00% # Class of committed instruction (Count)
system.cpu.commit.committedInstType_0::SimdWholeRegisterLoad            0      0.00%    100.00% # Class of committed instruction (Count)
system.cpu.commit.committedInstType_0::SimdWholeRegisterStore            0      0.00%    100.00% # Class of committed instruction (Count)
system.cpu.commit.committedInstType_0::SimdUnitStrideFaultOnlyFirstLoad            0      0.00%    100.00% # Class of committed instruction (Count)
system.cpu.commit.committedInstType_0::SimdUnitStrideSegmentedLoad            0      0.00%    100.00% # Class of committed instruction (Count)
system.cpu.commit.committedInstType_0::SimdUnitStrideSegmentedStore            0      0.00%    100.00% # Class of committed instruction (Count)
system.cpu.commit.committedInstType_0::SimdExt            0      0.00%    100.00% # Class of committed instruction (Count)
system.cpu.commit.committedInstType_0::SimdFloatExt            0      0.00%    100.00% # Class of committed instruction (Count)
system.cpu.commit.committedInstType_0::SimdConfig            0      0.00%    100.00% # Class of committed instruction (Count)
system.cpu.commit.committedInstType_0::total    374786184                       # Class of committed instruction (Count)
system.cpu.commit.commitEligibleSamples      24795189                       # number cycles where commit BW limit reached (Cycle)
system.cpu.commitStats0.numInsts            232620831                       # Number of instructions committed (thread level) (Count)
system.cpu.commitStats0.numOps              374786184                       # Number of ops (including micro ops) committed (thread level) (Count)
system.cpu.commitStats0.numInstsNotNOP      232620831                       # Number of instructions committed excluding NOPs or prefetches (Count)
system.cpu.commitStats0.numOpsNotNOP        374786184                       # Number of Ops (including micro ops) Simulated (Count)
system.cpu.commitStats0.cpi                  0.677566                       # CPI: cycles per instruction (thread level) ((Cycle/Count))
system.cpu.commitStats0.ipc                  1.475871                       # IPC: instructions per cycle (thread level) ((Count/Cycle))
system.cpu.commitStats0.numMemRefs           69961723                       # Number of memory references committed (Count)
system.cpu.commitStats0.numFpInsts            8228906                       # Number of float instructions (Count)
system.cpu.commitStats0.numIntInsts         372639918                       # Number of integer instructions (Count)
system.cpu.commitStats0.numLoadInsts         48963251                       # Number of load instructions (Count)
system.cpu.commitStats0.numStoreInsts        20998472                       # Number of store instructions (Count)
system.cpu.commitStats0.numVecInsts                 0                       # Number of vector instructions (Count)
system.cpu.commitStats0.committedInstType::No_OpClass       807855      0.22%      0.22% # Class of committed instruction. (Count)
system.cpu.commitStats0.committedInstType::IntAlu    288322189     76.93%     77.15% # Class of committed instruction. (Count)
system.cpu.commitStats0.committedInstType::IntMult     11049485      2.95%     80.09% # Class of committed instruction. (Count)
system.cpu.commitStats0.committedInstType::IntDiv      4565328      1.22%     81.31% # Class of committed instruction. (Count)
system.cpu.commitStats0.committedInstType::FloatAdd         9795      0.00%     81.31% # Class of committed instruction. (Count)
system.cpu.commitStats0.committedInstType::FloatCmp            0      0.00%     81.31% # Class of committed instruction. (Count)
system.cpu.commitStats0.committedInstType::FloatCvt         1424      0.00%     81.31% # Class of committed instruction. (Count)
system.cpu.commitStats0.committedInstType::FloatMult            0      0.00%     81.31% # Class of committed instruction. (Count)
system.cpu.commitStats0.committedInstType::FloatMultAcc            0      0.00%     81.31% # Class of committed instruction. (Count)
system.cpu.commitStats0.committedInstType::FloatDiv            0      0.00%     81.31% # Class of committed instruction. (Count)
system.cpu.commitStats0.committedInstType::FloatMisc            0      0.00%     81.31% # Class of committed instruction. (Count)
system.cpu.commitStats0.committedInstType::FloatSqrt            0      0.00%     81.31% # Class of committed instruction. (Count)
system.cpu.commitStats0.committedInstType::SimdAdd         6952      0.00%     81.32% # Class of committed instruction. (Count)
system.cpu.commitStats0.committedInstType::SimdAddAcc            0      0.00%     81.32% # Class of committed instruction. (Count)
system.cpu.commitStats0.committedInstType::SimdAlu        16824      0.00%     81.32% # Class of committed instruction. (Count)
system.cpu.commitStats0.committedInstType::SimdCmp           36      0.00%     81.32% # Class of committed instruction. (Count)
system.cpu.commitStats0.committedInstType::SimdCvt        15068      0.00%     81.33% # Class of committed instruction. (Count)
system.cpu.commitStats0.committedInstType::SimdMisc        26038      0.01%     81.33% # Class of committed instruction. (Count)
system.cpu.commitStats0.committedInstType::SimdMult            0      0.00%     81.33% # Class of committed instruction. (Count)
system.cpu.commitStats0.committedInstType::SimdMultAcc            0      0.00%     81.33% # Class of committed instruction. (Count)
system.cpu.commitStats0.committedInstType::SimdMatMultAcc            0      0.00%     81.33% # Class of committed instruction. (Count)
system.cpu.commitStats0.committedInstType::SimdShift         1961      0.00%     81.33% # Class of committed instruction. (Count)
system.cpu.commitStats0.committedInstType::SimdShiftAcc            0      0.00%     81.33% # Class of committed instruction. (Count)
system.cpu.commitStats0.committedInstType::SimdDiv            0      0.00%     81.33% # Class of committed instruction. (Count)
system.cpu.commitStats0.committedInstType::SimdSqrt            0      0.00%     81.33% # Class of committed instruction. (Count)
system.cpu.commitStats0.committedInstType::SimdFloatAdd          421      0.00%     81.33% # Class of committed instruction. (Count)
system.cpu.commitStats0.committedInstType::SimdFloatAlu            0      0.00%     81.33% # Class of committed instruction. (Count)
system.cpu.commitStats0.committedInstType::SimdFloatCmp            0      0.00%     81.33% # Class of committed instruction. (Count)
system.cpu.commitStats0.committedInstType::SimdFloatCvt          720      0.00%     81.33% # Class of committed instruction. (Count)
system.cpu.commitStats0.committedInstType::SimdFloatDiv           93      0.00%     81.33% # Class of committed instruction. (Count)
system.cpu.commitStats0.committedInstType::SimdFloatMisc            0      0.00%     81.33% # Class of committed instruction. (Count)
system.cpu.commitStats0.committedInstType::SimdFloatMult          218      0.00%     81.33% # Class of committed instruction. (Count)
system.cpu.commitStats0.committedInstType::SimdFloatMultAcc            0      0.00%     81.33% # Class of committed instruction. (Count)
system.cpu.commitStats0.committedInstType::SimdFloatMatMultAcc            0      0.00%     81.33% # Class of committed instruction. (Count)
system.cpu.commitStats0.committedInstType::SimdFloatSqrt           54      0.00%     81.33% # Class of committed instruction. (Count)
system.cpu.commitStats0.committedInstType::SimdReduceAdd            0      0.00%     81.33% # Class of committed instruction. (Count)
system.cpu.commitStats0.committedInstType::SimdReduceAlu            0      0.00%     81.33% # Class of committed instruction. (Count)
system.cpu.commitStats0.committedInstType::SimdReduceCmp            0      0.00%     81.33% # Class of committed instruction. (Count)
system.cpu.commitStats0.committedInstType::SimdFloatReduceAdd            0      0.00%     81.33% # Class of committed instruction. (Count)
system.cpu.commitStats0.committedInstType::SimdFloatReduceCmp            0      0.00%     81.33% # Class of committed instruction. (Count)
system.cpu.commitStats0.committedInstType::SimdAes            0      0.00%     81.33% # Class of committed instruction. (Count)
system.cpu.commitStats0.committedInstType::SimdAesMix            0      0.00%     81.33% # Class of committed instruction. (Count)
system.cpu.commitStats0.committedInstType::SimdSha1Hash            0      0.00%     81.33% # Class of committed instruction. (Count)
system.cpu.commitStats0.committedInstType::SimdSha1Hash2            0      0.00%     81.33% # Class of committed instruction. (Count)
system.cpu.commitStats0.committedInstType::SimdSha256Hash            0      0.00%     81.33% # Class of committed instruction. (Count)
system.cpu.commitStats0.committedInstType::SimdSha256Hash2            0      0.00%     81.33% # Class of committed instruction. (Count)
system.cpu.commitStats0.committedInstType::SimdShaSigma2            0      0.00%     81.33% # Class of committed instruction. (Count)
system.cpu.commitStats0.committedInstType::SimdShaSigma3            0      0.00%     81.33% # Class of committed instruction. (Count)
system.cpu.commitStats0.committedInstType::SimdPredAlu            0      0.00%     81.33% # Class of committed instruction. (Count)
system.cpu.commitStats0.committedInstType::Matrix            0      0.00%     81.33% # Class of committed instruction. (Count)
system.cpu.commitStats0.committedInstType::MatrixMov            0      0.00%     81.33% # Class of committed instruction. (Count)
system.cpu.commitStats0.committedInstType::MatrixOP            0      0.00%     81.33% # Class of committed instruction. (Count)
system.cpu.commitStats0.committedInstType::MemRead     44924617     11.99%     93.32% # Class of committed instruction. (Count)
system.cpu.commitStats0.committedInstType::MemWrite     16894795      4.51%     97.83% # Class of committed instruction. (Count)
system.cpu.commitStats0.committedInstType::FloatMemRead      4038634      1.08%     98.91% # Class of committed instruction. (Count)
system.cpu.commitStats0.committedInstType::FloatMemWrite      4103677      1.09%    100.00% # Class of committed instruction. (Count)
system.cpu.commitStats0.committedInstType::IprAccess            0      0.00%    100.00% # Class of committed instruction. (Count)
system.cpu.commitStats0.committedInstType::InstPrefetch            0      0.00%    100.00% # Class of committed instruction. (Count)
system.cpu.commitStats0.committedInstType::SimdUnitStrideLoad            0      0.00%    100.00% # Class of committed instruction. (Count)
system.cpu.commitStats0.committedInstType::SimdUnitStrideStore            0      0.00%    100.00% # Class of committed instruction. (Count)
system.cpu.commitStats0.committedInstType::SimdUnitStrideMaskLoad            0      0.00%    100.00% # Class of committed instruction. (Count)
system.cpu.commitStats0.committedInstType::SimdUnitStrideMaskStore            0      0.00%    100.00% # Class of committed instruction. (Count)
system.cpu.commitStats0.committedInstType::SimdStridedLoad            0      0.00%    100.00% # Class of committed instruction. (Count)
system.cpu.commitStats0.committedInstType::SimdStridedStore            0      0.00%    100.00% # Class of committed instruction. (Count)
system.cpu.commitStats0.committedInstType::SimdIndexedLoad            0      0.00%    100.00% # Class of committed instruction. (Count)
system.cpu.commitStats0.committedInstType::SimdIndexedStore            0      0.00%    100.00% # Class of committed instruction. (Count)
system.cpu.commitStats0.committedInstType::SimdWholeRegisterLoad            0      0.00%    100.00% # Class of committed instruction. (Count)
system.cpu.commitStats0.committedInstType::SimdWholeRegisterStore            0      0.00%    100.00% # Class of committed instruction. (Count)
system.cpu.commitStats0.committedInstType::SimdUnitStrideFaultOnlyFirstLoad            0      0.00%    100.00% # Class of committed instruction. (Count)
system.cpu.commitStats0.committedInstType::SimdUnitStrideSegmentedLoad            0      0.00%    100.00% # Class of committed instruction. (Count)
system.cpu.commitStats0.committedInstType::SimdUnitStrideSegmentedStore            0      0.00%    100.00% # Class of committed instruction. (Count)
system.cpu.commitStats0.committedInstType::SimdExt            0      0.00%    100.00% # Class of committed instruction. (Count)
system.cpu.commitStats0.committedInstType::SimdFloatExt            0      0.00%    100.00% # Class of committed instruction. (Count)
system.cpu.commitStats0.committedInstType::SimdConfig            0      0.00%    100.00% # Class of committed instruction. (Count)
system.cpu.commitStats0.committedInstType::total    374786184                       # Class of committed instruction. (Count)
system.cpu.commitStats0.committedControl::IsControl     30274504                       # Class of control type instructions committed (Count)
system.cpu.commitStats0.committedControl::IsDirectControl     29877895                       # Class of control type instructions committed (Count)
system.cpu.commitStats0.committedControl::IsIndirectControl       396328                       # Class of control type instructions committed (Count)
system.cpu.commitStats0.committedControl::IsCondControl     27911469                       # Class of control type instructions committed (Count)
system.cpu.commitStats0.committedControl::IsUncondControl      2362754                       # Class of control type instructions committed (Count)
system.cpu.commitStats0.committedControl::IsCall       382979                       # Class of control type instructions committed (Count)
system.cpu.commitStats0.committedControl::IsReturn       382974                       # Class of control type instructions committed (Count)
system.cpu.decode.idleCycles                 15612876                       # Number of cycles decode is idle (Cycle)
system.cpu.decode.blockedCycles              60705225                       # Number of cycles decode is blocked (Cycle)
system.cpu.decode.runCycles                  55761582                       # Number of cycles decode is running (Cycle)
system.cpu.decode.unblockCycles              22511401                       # Number of cycles decode is unblocking (Cycle)
system.cpu.decode.squashCycles                3009277                       # Number of cycles decode is squashing (Cycle)
system.cpu.decode.branchResolved             30874372                       # Number of times decode resolved a branch (Count)
system.cpu.decode.branchMispred                  5484                       # Number of times decode detected a branch misprediction (Count)
system.cpu.decode.decodedInsts              595238021                       # Number of instructions handled by decode (Count)
system.cpu.decode.squashedInsts                 27160                       # Number of squashed instructions handled by decode (Count)
system.cpu.executeStats0.numInsts           476262011                       # Number of executed instructions (Count)
system.cpu.executeStats0.numNop                     0                       # Number of nop insts executed (Count)
system.cpu.executeStats0.numBranches         36491224                       # Number of branches executed (Count)
system.cpu.executeStats0.numLoadInsts        69132025                       # Number of load instructions executed (Count)
system.cpu.executeStats0.numStoreInsts       27064439                       # Number of stores executed (Count)
system.cpu.executeStats0.instRate            3.021661                       # Inst execution rate ((Count/Cycle))
system.cpu.executeStats0.numCCRegReads      224592849                       # Number of times the CC registers were read (Count)
system.cpu.executeStats0.numCCRegWrites     236611720                       # Number of times the CC registers were written (Count)
system.cpu.executeStats0.numFpRegReads        5455984                       # Number of times the floating registers were read (Count)
system.cpu.executeStats0.numFpRegWrites       6288315                       # Number of times the floating registers were written (Count)
system.cpu.executeStats0.numIntRegReads     629960239                       # Number of times the integer registers were read (Count)
system.cpu.executeStats0.numIntRegWrites    380802313                       # Number of times the integer registers were written (Count)
system.cpu.executeStats0.numMemRefs          96196464                       # Number of memory refs (Count)
system.cpu.executeStats0.numMiscRegReads    173847945                       # Number of times the Misc registers were read (Count)
system.cpu.executeStats0.numMiscRegWrites          801                       # Number of times the Misc registers were written (Count)
system.cpu.executeStats0.numVecAluAccesses            0                       # Number of vector alu accesses (Count)
system.cpu.executeStats0.numDiscardedOps            0                       # Number of ops (including micro ops) which were discarded before commit (Count)
system.cpu.fetch.predictedBranches           33984709                       # Number of branches that fetch has predicted taken (Count)
system.cpu.fetch.cycles                     151743267                       # Number of cycles fetch has run and was not squashing or blocked (Cycle)
system.cpu.fetch.squashCycles                 6029346                       # Number of cycles fetch has spent squashing (Cycle)
system.cpu.fetch.miscStallCycles                  323                       # Number of cycles fetch has spent waiting on interrupts, or bad addresses, or out of MSHRs (Cycle)
system.cpu.fetch.pendingTrapStallCycles          3328                       # Number of stall cycles due to pending traps (Cycle)
system.cpu.fetch.cacheLines                  31327203                       # Number of cache lines fetched (Count)
[...]
system.mem_ctrl.dram.bwRead::total          293375311                       # Total read bandwidth from this memory ((Byte/Second))
system.mem_ctrl.dram.bwInstRead::cpu.inst     98693671                       # Instruction read bandwidth from this memory ((Byte/Second))
system.mem_ctrl.dram.bwInstRead::total       98693671                       # Instruction read bandwidth from this memory ((Byte/Second))
system.mem_ctrl.dram.bwWrite::writebacks    132527820                       # Write bandwidth from this memory ((Byte/Second))
system.mem_ctrl.dram.bwWrite::total         132527820                       # Write bandwidth from this memory ((Byte/Second))
system.mem_ctrl.dram.bwTotal::writebacks    132527820                       # Total bandwidth to/from this memory ((Byte/Second))
system.mem_ctrl.dram.bwTotal::cpu.inst       98693671                       # Total bandwidth to/from this memory ((Byte/Second))
system.mem_ctrl.dram.bwTotal::cpu.data      194681640                       # Total bandwidth to/from this memory ((Byte/Second))
system.mem_ctrl.dram.bwTotal::total         425903131                       # Total bandwidth to/from this memory ((Byte/Second))
system.mem_ctrl.dram.readBursts                 10726                       # Number of DRAM read bursts (Count)
system.mem_ctrl.dram.writeBursts                 4793                       # Number of DRAM write bursts (Count)
system.mem_ctrl.dram.perBankRdBursts::0           576                       # Per bank write bursts (Count)
system.mem_ctrl.dram.perBankRdBursts::1           458                       # Per bank write bursts (Count)
system.mem_ctrl.dram.perBankRdBursts::2           460                       # Per bank write bursts (Count)
system.mem_ctrl.dram.perBankRdBursts::3           602                       # Per bank write bursts (Count)
system.mem_ctrl.dram.perBankRdBursts::4           715                       # Per bank write bursts (Count)
system.mem_ctrl.dram.perBankRdBursts::5          1088                       # Per bank write bursts (Count)
system.mem_ctrl.dram.perBankRdBursts::6           906                       # Per bank write bursts (Count)
system.mem_ctrl.dram.perBankRdBursts::7           822                       # Per bank write bursts (Count)
system.mem_ctrl.dram.perBankRdBursts::8           493                       # Per bank write bursts (Count)
system.mem_ctrl.dram.perBankRdBursts::9           531                       # Per bank write bursts (Count)
system.mem_ctrl.dram.perBankRdBursts::10          590                       # Per bank write bursts (Count)
system.mem_ctrl.dram.perBankRdBursts::11          616                       # Per bank write bursts (Count)
system.mem_ctrl.dram.perBankRdBursts::12          578                       # Per bank write bursts (Count)
system.mem_ctrl.dram.perBankRdBursts::13          533                       # Per bank write bursts (Count)
system.mem_ctrl.dram.perBankRdBursts::14         1117                       # Per bank write bursts (Count)
system.mem_ctrl.dram.perBankRdBursts::15          641                       # Per bank write bursts (Count)
system.mem_ctrl.dram.perBankWrBursts::0           276                       # Per bank write bursts (Count)
system.mem_ctrl.dram.perBankWrBursts::1           263                       # Per bank write bursts (Count)
system.mem_ctrl.dram.perBankWrBursts::2           257                       # Per bank write bursts (Count)
system.mem_ctrl.dram.perBankWrBursts::3           281                       # Per bank write bursts (Count)
system.mem_ctrl.dram.perBankWrBursts::4           273                       # Per bank write bursts (Count)
system.mem_ctrl.dram.perBankWrBursts::5           281                       # Per bank write bursts (Count)
system.mem_ctrl.dram.perBankWrBursts::6           586                       # Per bank write bursts (Count)
system.mem_ctrl.dram.perBankWrBursts::7           316                       # Per bank write bursts (Count)
system.mem_ctrl.dram.perBankWrBursts::8           259                       # Per bank write bursts (Count)
system.mem_ctrl.dram.perBankWrBursts::9           258                       # Per bank write bursts (Count)
system.mem_ctrl.dram.perBankWrBursts::10          308                       # Per bank write bursts (Count)
system.mem_ctrl.dram.perBankWrBursts::11          323                       # Per bank write bursts (Count)
system.mem_ctrl.dram.perBankWrBursts::12          264                       # Per bank write bursts (Count)
system.mem_ctrl.dram.perBankWrBursts::13          259                       # Per bank write bursts (Count)
system.mem_ctrl.dram.perBankWrBursts::14          296                       # Per bank write bursts (Count)
system.mem_ctrl.dram.perBankWrBursts::15          293                       # Per bank write bursts (Count)
system.mem_ctrl.dram.totQLat                139559890                       # Total ticks spent queuing (Tick)
system.mem_ctrl.dram.totBusLat               53630000                       # Total ticks spent in databus transfers (Tick)
system.mem_ctrl.dram.totMemAccLat           340672390                       # Total ticks spent from burst creation until serviced by the DRAM (Tick)
system.mem_ctrl.dram.avgQLat                 13011.36                       # Average queueing delay per DRAM burst ((Tick/Count))
system.mem_ctrl.dram.avgBusLat                5000.00                       # Average bus latency per DRAM burst ((Tick/Count))
system.mem_ctrl.dram.avgMemAccLat            31761.36                       # Average memory access latency per DRAM burst ((Tick/Count))
system.mem_ctrl.dram.readRowHits                 7436                       # Number of row buffer hits during reads (Count)
system.mem_ctrl.dram.writeRowHits                4315                       # Number of row buffer hits during writes (Count)
system.mem_ctrl.dram.readRowHitRate             69.33                       # Row buffer hit rate for reads (Ratio)
system.mem_ctrl.dram.writeRowHitRate            90.03                       # Row buffer hit rate for writes (Ratio)
system.mem_ctrl.dram.bytesPerActivate::samples         3771                       # Bytes accessed per row activation (Byte)
system.mem_ctrl.dram.bytesPerActivate::mean   263.331742                       # Bytes accessed per row activation (Byte)
system.mem_ctrl.dram.bytesPerActivate::gmean   154.421332                       # Bytes accessed per row activation (Byte)
system.mem_ctrl.dram.bytesPerActivate::stdev   313.140287                       # Bytes accessed per row activation (Byte)
system.mem_ctrl.dram.bytesPerActivate::0-127         1571     41.66%     41.66% # Bytes accessed per row activation (Byte)
system.mem_ctrl.dram.bytesPerActivate::128-255         1104     29.28%     70.94% # Bytes accessed per row activation (Byte)
system.mem_ctrl.dram.bytesPerActivate::256-383          317      8.41%     79.34% # Bytes accessed per row activation (Byte)
system.mem_ctrl.dram.bytesPerActivate::384-511          155      4.11%     83.45% # Bytes accessed per row activation (Byte)
system.mem_ctrl.dram.bytesPerActivate::512-639           73      1.94%     85.39% # Bytes accessed per row activation (Byte)
system.mem_ctrl.dram.bytesPerActivate::640-767           36      0.95%     86.34% # Bytes accessed per row activation (Byte)
system.mem_ctrl.dram.bytesPerActivate::768-895           53      1.41%     87.75% # Bytes accessed per row activation (Byte)
system.mem_ctrl.dram.bytesPerActivate::896-1023           50      1.33%     89.07% # Bytes accessed per row activation (Byte)
system.mem_ctrl.dram.bytesPerActivate::1024-1151          412     10.93%    100.00% # Bytes accessed per row activation (Byte)
system.mem_ctrl.dram.bytesPerActivate::total         3771                       # Bytes accessed per row activation (Byte)
system.mem_ctrl.dram.dramBytesRead             686464                       # Total bytes read (Byte)
system.mem_ctrl.dram.dramBytesWritten          306752                       # Total bytes written (Byte)
system.mem_ctrl.dram.avgRdBW               276.393815                       # Average DRAM read bandwidth in MiBytes/s ((Byte/Second))
system.mem_ctrl.dram.avgWrBW               123.508816                       # Average DRAM write bandwidth in MiBytes/s ((Byte/Second))
system.mem_ctrl.dram.peakBW                  12800.00                       # Theoretical peak bandwidth in MiByte/s ((Byte/Second))
system.mem_ctrl.dram.busUtil                     3.12                       # Data bus utilization in percentage (Ratio)
system.mem_ctrl.dram.busUtilRead                 2.16                       # Data bus utilization in percentage for reads (Ratio)
system.mem_ctrl.dram.busUtilWrite                0.96                       # Data bus utilization in percentage for writes (Ratio)
system.mem_ctrl.dram.pageHitRate                75.72                       # Row buffer hit rate, read and write combined (Ratio)
system.mem_ctrl.dram.power_state.pwrStateResidencyTicks::UNDEFINED   2483644574                       # Cumulative time (in ticks) in various power states (Tick)
system.mem_ctrl.dram.rank0.actEnergy         15415260                       # Energy for activate commands per rank (pJ) (Joule)
system.mem_ctrl.dram.rank0.preEnergy          8193405                       # Energy for precharge commands per rank (pJ) (Joule)
system.mem_ctrl.dram.rank0.readEnergy        40176780                       # Energy for read commands per rank (pJ) (Joule)
system.mem_ctrl.dram.rank0.writeEnergy       13222260                       # Energy for write commands per rank (pJ) (Joule)
system.mem_ctrl.dram.rank0.refreshEnergy 196070160.000000                       # Energy for refresh commands per rank (pJ) (Joule)
system.mem_ctrl.dram.rank0.actBackEnergy    877521840                       # Energy for active background per rank (pJ) (Joule)
system.mem_ctrl.dram.rank0.preBackEnergy    214753440                       # Energy for precharge background per rank (pJ) (Joule)
system.mem_ctrl.dram.rank0.actPowerDownEnergy            0                       # Energy for active power-down per rank (pJ) (Joule)
system.mem_ctrl.dram.rank0.prePowerDownEnergy            0                       # Energy for precharge power-down per rank (pJ) (Joule)
system.mem_ctrl.dram.rank0.selfRefreshEnergy            0                       # Energy for self refresh per rank (pJ) (Joule)
system.mem_ctrl.dram.rank0.totalEnergy     1365353145                       # Total energy per rank (pJ) (Joule)
system.mem_ctrl.dram.rank0.averagePower    549.737736                       # Core power per rank (mW) (Watt)
system.mem_ctrl.dram.rank0.totalIdleTime            0                       # Total Idle time Per DRAM Rank (Tick)
system.mem_ctrl.dram.rank0.pwrStateTime::IDLE    550387113                       # Time in different power states (Tick)
system.mem_ctrl.dram.rank0.pwrStateTime::REF     82940000                       # Time in different power states (Tick)
system.mem_ctrl.dram.rank0.pwrStateTime::SREF            0                       # Time in different power states (Tick)
system.mem_ctrl.dram.rank0.pwrStateTime::PRE_PDN            0                       # Time in different power states (Tick)
system.mem_ctrl.dram.rank0.pwrStateTime::ACT   1850317461                       # Time in different power states (Tick)
system.mem_ctrl.dram.rank0.pwrStateTime::ACT_PDN            0                       # Time in different power states (Tick)
system.mem_ctrl.dram.rank1.actEnergy         11488260                       # Energy for activate commands per rank (pJ) (Joule)
system.mem_ctrl.dram.rank1.preEnergy          6117540                       # Energy for precharge commands per rank (pJ) (Joule)
system.mem_ctrl.dram.rank1.readEnergy        36406860                       # Energy for read commands per rank (pJ) (Joule)
system.mem_ctrl.dram.rank1.writeEnergy       11797200                       # Energy for write commands per rank (pJ) (Joule)
system.mem_ctrl.dram.rank1.refreshEnergy 196070160.000000                       # Energy for refresh commands per rank (pJ) (Joule)
system.mem_ctrl.dram.rank1.actBackEnergy    861516810                       # Energy for active background per rank (pJ) (Joule)
system.mem_ctrl.dram.rank1.preBackEnergy    228231360                       # Energy for precharge background per rank (pJ) (Joule)
system.mem_ctrl.dram.rank1.actPowerDownEnergy            0                       # Energy for active power-down per rank (pJ) (Joule)
system.mem_ctrl.dram.rank1.prePowerDownEnergy            0                       # Energy for precharge power-down per rank (pJ) (Joule)
system.mem_ctrl.dram.rank1.selfRefreshEnergy            0                       # Energy for self refresh per rank (pJ) (Joule)
system.mem_ctrl.dram.rank1.totalEnergy     1351628190                       # Total energy per rank (pJ) (Joule)
system.mem_ctrl.dram.rank1.averagePower    544.211601                       # Core power per rank (mW) (Watt)
system.mem_ctrl.dram.rank1.totalIdleTime            0                       # Total Idle time Per DRAM Rank (Tick)
system.mem_ctrl.dram.rank1.pwrStateTime::IDLE    585477169                       # Time in different power states (Tick)
system.mem_ctrl.dram.rank1.pwrStateTime::REF     82940000                       # Time in different power states (Tick)
system.mem_ctrl.dram.rank1.pwrStateTime::SREF            0                       # Time in different power states (Tick)
system.mem_ctrl.dram.rank1.pwrStateTime::PRE_PDN            0                       # Time in different power states (Tick)
system.mem_ctrl.dram.rank1.pwrStateTime::ACT   1815227405                       # Time in different power states (Tick)
system.mem_ctrl.dram.rank1.pwrStateTime::ACT_PDN            0                       # Time in different power states (Tick)
system.mem_ctrl.power_state.pwrStateResidencyTicks::UNDEFINED   2483644574                       # Cumulative time (in ticks) in various power states (Tick)
system.membus.transDist::ReadResp                6850                       # Transaction distribution (Count)
system.membus.transDist::WritebackDirty          5143                       # Transaction distribution (Count)
system.membus.transDist::CleanEvict              6243                       # Transaction distribution (Count)
system.membus.transDist::UpgradeReq                 1                       # Transaction distribution (Count)
system.membus.transDist::ReadExReq               4537                       # Transaction distribution (Count)
system.membus.transDist::ReadExResp              4537                       # Transaction distribution (Count)
system.membus.transDist::ReadSharedReq           6847                       # Transaction distribution (Count)
system.membus.pktCount_system.cpu.l1d.mem_side_port::system.mem_ctrl.port        22665                       # Packet count per connected requestor and responder (Count)
system.membus.pktCount_system.cpu.l1d.mem_side_port::total        22665                       # Packet count per connected requestor and responder (Count)
system.membus.pktCount_system.cpu.l1i.mem_side_port::system.mem_ctrl.port        11492                       # Packet count per connected requestor and responder (Count)
system.membus.pktCount_system.cpu.l1i.mem_side_port::total        11492                       # Packet count per connected requestor and responder (Count)
system.membus.pktCount::total                   34157                       # Packet count per connected requestor and responder (Count)
system.membus.pktSize_system.cpu.l1d.mem_side_port::system.mem_ctrl.port       812672                       # Cumulative packet size per connected requestor and responder (Byte)
system.membus.pktSize_system.cpu.l1d.mem_side_port::total       812672                       # Cumulative packet size per connected requestor and responder (Byte)
system.membus.pktSize_system.cpu.l1i.mem_side_port::system.mem_ctrl.port       245184                       # Cumulative packet size per connected requestor and responder (Byte)
system.membus.pktSize_system.cpu.l1i.mem_side_port::total       245184                       # Cumulative packet size per connected requestor and responder (Byte)
system.membus.pktSize::total                  1057856                       # Cumulative packet size per connected requestor and responder (Byte)
system.membus.snoops                                1                       # Total snoops (Count)
system.membus.snoopTraffic                         64                       # Total snoop traffic (Byte)
system.membus.snoopFanout::samples              11385                       # Request fanout histogram (Count)
system.membus.snoopFanout::mean              0.002635                       # Request fanout histogram (Count)
system.membus.snoopFanout::stdev             0.051267                       # Request fanout histogram (Count)
system.membus.snoopFanout::underflows               0      0.00%      0.00% # Request fanout histogram (Count)
system.membus.snoopFanout::0                    11355     99.74%     99.74% # Request fanout histogram (Count)
system.membus.snoopFanout::1                       30      0.26%    100.00% # Request fanout histogram (Count)
system.membus.snoopFanout::2                        0      0.00%    100.00% # Request fanout histogram (Count)
system.membus.snoopFanout::overflows                0      0.00%    100.00% # Request fanout histogram (Count)
system.membus.snoopFanout::min_value                0                       # Request fanout histogram (Count)
system.membus.snoopFanout::max_value                1                       # Request fanout histogram (Count)
system.membus.snoopFanout::total                11385                       # Request fanout histogram (Count)
system.membus.power_state.pwrStateResidencyTicks::UNDEFINED   2483644574                       # Cumulative time (in ticks) in various power states (Tick)
system.membus.reqLayer2.occupancy           577892219                       # Layer occupancy (ticks) (Tick)
system.membus.reqLayer2.utilization               0.2                       # Layer utilization (Ratio)
system.membus.respLayer2.occupancy          514783750                       # Layer occupancy (ticks) (Tick)
system.membus.respLayer2.utilization              0.2                       # Layer utilization (Ratio)
system.membus.respLayer3.occupancy          261828794                       # Layer occupancy (ticks) (Tick)
system.membus.respLayer3.utilization              0.1                       # Layer utilization (Ratio)
system.membus.snoop_filter.totRequests          22771                       # Total number of requests made to the snoop filter. (Count)
system.membus.snoop_filter.hitSingleRequests        11387                       # Number of requests hitting in the snoop filter with a single holder of the requested data. (Count)
system.membus.snoop_filter.hitMultiRequests           29                       # Number of requests hitting in the snoop filter with multiple (>1) holders of the requested data. (Count)
system.membus.snoop_filter.totSnoops                0                       # Total number of snoops made to the snoop filter. (Count)
system.membus.snoop_filter.hitSingleSnoops            0                       # Number of snoops hitting in the snoop filter with a single holder of the requested data. (Count)
system.membus.snoop_filter.hitMultiSnoops            0                       # Number of snoops hitting in the snoop filter with multiple (>1) holders of the requested data. (Count)
system.workload.inst.arm                            0                       # number of arm instructions executed (Count)
system.workload.inst.quiesce                        0                       # number of quiesce instructions executed (Count)

---------- End Simulation Statistics   ----------
