
---------- Begin Simulation Statistics ----------
simSeconds                                   2.505157                       # Number of seconds simulated (Second)
simTicks                                 2505157289502                       # Number of ticks simulated (Tick)
finalTick                                2505157289502                       # Number of ticks from beginning of simulation (restored from checkpoints and never reset) (Tick)
simFreq                                  1000000000000                       # The number of ticks per simulated second ((Tick/Second))
hostSeconds                                    117.87                       # Real time elapsed on the host (Second)
hostTickRate                              21253037303                       # The number of ticks simulated per host second (ticks/s) ((Tick/Second))
hostMemory                                    8616212                       # Number of bytes of host memory used (Byte)
simInsts                                    100863078                       # Number of instructions simulated (Count)
simOps                                      181604537                       # Number of ops (including micro ops) simulated (Count)
hostInstRate                                   855693                       # Simulator instruction rate (inst/s) ((Count/Second))
hostOpRate                                    1540679                       # Simulator op (including micro ops) rate (op/s) ((Count/Second))
system.clk_domain.clock                         13333                       # Clock period in ticks (Tick)
system.clk_domain.voltage_domain.voltage            1                       # Voltage in Volts (Volt)
system.cpu.numCycles                        187891494                       # Number of cpu cycles simulated (Cycle)
system.cpu.cpi                               1.862819                       # CPI: cycles per instruction (core level) ((Cycle/Count))
system.cpu.ipc                               0.536821                       # IPC: instructions per cycle (core level) ((Count/Cycle))
system.cpu.numWorkItemsStarted                      0                       # Number of work items this cpu started (Count)
system.cpu.numWorkItemsCompleted                    0                       # Number of work items this cpu completed (Count)
system.cpu.commitStats0.numInsts            100864057                       # Number of instructions committed (thread level) (Count)
system.cpu.commitStats0.numOps              181605890                       # Number of ops (including micro ops) committed (thread level) (Count)
system.cpu.commitStats0.numInstsNotNOP              0                       # Number of instructions committed excluding NOPs or prefetches (Count)
system.cpu.commitStats0.numOpsNotNOP                0                       # Number of Ops (including micro ops) Simulated (Count)
system.cpu.commitStats0.cpi                  1.862819                       # CPI: cycles per instruction (thread level) ((Cycle/Count))
system.cpu.commitStats0.ipc                  0.536821                       # IPC: instructions per cycle (thread level) ((Count/Cycle))
system.cpu.commitStats0.numMemRefs                  0                       # Number of memory references committed (Count)
system.cpu.commitStats0.numFpInsts            1310180                       # Number of float instructions (Count)
system.cpu.commitStats0.numIntInsts         180801309                       # Number of integer instructions (Count)
system.cpu.commitStats0.numLoadInsts         29303387                       # Number of load instructions (Count)
system.cpu.commitStats0.numStoreInsts         4949112                       # Number of store instructions (Count)
system.cpu.commitStats0.numVecInsts                 0                       # Number of vector instructions (Count)
system.cpu.commitStats0.committedInstType::No_OpClass       453028      0.25%      0.25% # Class of committed instruction. (Count)
system.cpu.commitStats0.committedInstType::IntAlu    146511906     80.68%     80.93% # Class of committed instruction. (Count)
system.cpu.commitStats0.committedInstType::IntMult          146      0.00%     80.93% # Class of committed instruction. (Count)
system.cpu.commitStats0.committedInstType::IntDiv        38757      0.02%     80.95% # Class of committed instruction. (Count)
system.cpu.commitStats0.committedInstType::FloatAdd         7972      0.00%     80.95% # Class of committed instruction. (Count)
system.cpu.commitStats0.committedInstType::FloatCmp            0      0.00%     80.95% # Class of committed instruction. (Count)
system.cpu.commitStats0.committedInstType::FloatCvt         1232      0.00%     80.95% # Class of committed instruction. (Count)
system.cpu.commitStats0.committedInstType::FloatMult            0      0.00%     80.95% # Class of committed instruction. (Count)
system.cpu.commitStats0.committedInstType::FloatMultAcc            0      0.00%     80.95% # Class of committed instruction. (Count)
system.cpu.commitStats0.committedInstType::FloatDiv            0      0.00%     80.95% # Class of committed instruction. (Count)
system.cpu.commitStats0.committedInstType::FloatMisc            0      0.00%     80.95% # Class of committed instruction. (Count)
system.cpu.commitStats0.committedInstType::FloatSqrt            0      0.00%     80.95% # Class of committed instruction. (Count)
system.cpu.commitStats0.committedInstType::SimdAdd         6430      0.00%     80.96% # Class of committed instruction. (Count)
system.cpu.commitStats0.committedInstType::SimdAddAcc            0      0.00%     80.96% # Class of committed instruction. (Count)
system.cpu.commitStats0.committedInstType::SimdAlu       304377      0.17%     81.12% # Class of committed instruction. (Count)
system.cpu.commitStats0.committedInstType::SimdCmp            6      0.00%     81.12% # Class of committed instruction. (Count)
system.cpu.commitStats0.committedInstType::SimdCvt        13378      0.01%     81.13% # Class of committed instruction. (Count)
system.cpu.commitStats0.committedInstType::SimdMisc        14363      0.01%     81.14% # Class of committed instruction. (Count)
system.cpu.commitStats0.committedInstType::SimdMult            0      0.00%     81.14% # Class of committed instruction. (Count)
system.cpu.commitStats0.committedInstType::SimdMultAcc            0      0.00%     81.14% # Class of committed instruction. (Count)
system.cpu.commitStats0.committedInstType::SimdMatMultAcc            0      0.00%     81.14% # Class of committed instruction. (Count)
system.cpu.commitStats0.committedInstType::SimdShift         1700      0.00%     81.14% # Class of committed instruction. (Count)
system.cpu.commitStats0.committedInstType::SimdShiftAcc            0      0.00%     81.14% # Class of committed instruction. (Count)
system.cpu.commitStats0.committedInstType::SimdDiv            0      0.00%     81.14% # Class of committed instruction. (Count)
system.cpu.commitStats0.committedInstType::SimdSqrt            0      0.00%     81.14% # Class of committed instruction. (Count)
system.cpu.commitStats0.committedInstType::SimdFloatAdd           24      0.00%     81.14% # Class of committed instruction. (Count)
system.cpu.commitStats0.committedInstType::SimdFloatAlu            0      0.00%     81.14% # Class of committed instruction. (Count)
system.cpu.commitStats0.committedInstType::SimdFloatCmp            0      0.00%     81.14% # Class of committed instruction. (Count)
system.cpu.commitStats0.committedInstType::SimdFloatCvt           48      0.00%     81.14% # Class of committed instruction. (Count)
system.cpu.commitStats0.committedInstType::SimdFloatDiv           24      0.00%     81.14% # Class of committed instruction. (Count)
system.cpu.commitStats0.committedInstType::SimdFloatMisc            0      0.00%     81.14% # Class of committed instruction. (Count)
system.cpu.commitStats0.committedInstType::SimdFloatMult            0      0.00%     81.14% # Class of committed instruction. (Count)
system.cpu.commitStats0.committedInstType::SimdFloatMultAcc            0      0.00%     81.14% # Class of committed instruction. (Count)
system.cpu.commitStats0.committedInstType::SimdFloatMatMultAcc            0      0.00%     81.14% # Class of committed instruction. (Count)
system.cpu.commitStats0.committedInstType::SimdFloatSqrt            0      0.00%     81.14% # Class of committed instruction. (Count)
system.cpu.commitStats0.committedInstType::SimdReduceAdd            0      0.00%     81.14% # Class of committed instruction. (Count)
system.cpu.commitStats0.committedInstType::SimdReduceAlu            0      0.00%     81.14% # Class of committed instruction. (Count)
system.cpu.commitStats0.committedInstType::SimdReduceCmp            0      0.00%     81.14% # Class of committed instruction. (Count)
system.cpu.commitStats0.committedInstType::SimdFloatReduceAdd            0      0.00%     81.14% # Class of committed instruction. (Count)
system.cpu.commitStats0.committedInstType::SimdFloatReduceCmp            0      0.00%     81.14% # Class of committed instruction. (Count)
system.cpu.commitStats0.committedInstType::SimdAes            0      0.00%     81.14% # Class of committed instruction. (Count)
system.cpu.commitStats0.committedInstType::SimdAesMix            0      0.00%     81.14% # Class of committed instruction. (Count)
system.cpu.commitStats0.committedInstType::SimdSha1Hash            0      0.00%     81.14% # Class of committed instruction. (Count)
system.cpu.commitStats0.committedInstType::SimdSha1Hash2            0      0.00%     81.14% # Class of committed instruction. (Count)
system.cpu.commitStats0.committedInstType::SimdSha256Hash            0      0.00%     81.14% # Class of committed instruction. (Count)
system.cpu.commitStats0.committedInstType::SimdSha256Hash2            0      0.00%     81.14% # Class of committed instruction. (Count)
system.cpu.commitStats0.committedInstType::SimdShaSigma2            0      0.00%     81.14% # Class of committed instruction. (Count)
system.cpu.commitStats0.committedInstType::SimdShaSigma3            0      0.00%     81.14% # Class of committed instruction. (Count)
system.cpu.commitStats0.committedInstType::SimdPredAlu            0      0.00%     81.14% # Class of committed instruction. (Count)
system.cpu.commitStats0.committedInstType::Matrix            0      0.00%     81.14% # Class of committed instruction. (Count)
system.cpu.commitStats0.committedInstType::MatrixMov            0      0.00%     81.14% # Class of committed instruction. (Count)
system.cpu.commitStats0.committedInstType::MatrixOP            0      0.00%     81.14% # Class of committed instruction. (Count)
system.cpu.commitStats0.committedInstType::MemRead     28994940     15.97%     97.10% # Class of committed instruction. (Count)
system.cpu.commitStats0.committedInstType::MemWrite      4301155      2.37%     99.47% # Class of committed instruction. (Count)
system.cpu.commitStats0.committedInstType::FloatMemRead       308447      0.17%     99.64% # Class of committed instruction. (Count)
system.cpu.commitStats0.committedInstType::FloatMemWrite       647957      0.36%    100.00% # Class of committed instruction. (Count)
system.cpu.commitStats0.committedInstType::IprAccess            0      0.00%    100.00% # Class of committed instruction. (Count)
system.cpu.commitStats0.committedInstType::InstPrefetch            0      0.00%    100.00% # Class of committed instruction. (Count)
system.cpu.commitStats0.committedInstType::SimdUnitStrideLoad            0      0.00%    100.00% # Class of committed instruction. (Count)
system.cpu.commitStats0.committedInstType::SimdUnitStrideStore            0      0.00%    100.00% # Class of committed instruction. (Count)
system.cpu.commitStats0.committedInstType::SimdUnitStrideMaskLoad            0      0.00%    100.00% # Class of committed instruction. (Count)
system.cpu.commitStats0.committedInstType::SimdUnitStrideMaskStore            0      0.00%    100.00% # Class of committed instruction. (Count)
system.cpu.commitStats0.committedInstType::SimdStridedLoad            0      0.00%    100.00% # Class of committed instruction. (Count)
system.cpu.commitStats0.committedInstType::SimdStridedStore            0      0.00%    100.00% # Class of committed instruction. (Count)
system.cpu.commitStats0.committedInstType::SimdIndexedLoad            0      0.00%    100.00% # Class of committed instruction. (Count)
system.cpu.commitStats0.committedInstType::SimdIndexedStore            0      0.00%    100.00% # Class of committed instruction. (Count)
system.cpu.commitStats0.committedInstType::SimdWholeRegisterLoad            0      0.00%    100.00% # Class of committed instruction. (Count)
system.cpu.commitStats0.committedInstType::SimdWholeRegisterStore            0      0.00%    100.00% # Class of committed instruction. (Count)
system.cpu.commitStats0.committedInstType::SimdUnitStrideFaultOnlyFirstLoad            0      0.00%    100.00% # Class of committed instruction. (Count)
system.cpu.commitStats0.committedInstType::SimdUnitStrideSegmentedLoad            0      0.00%    100.00% # Class of committed instruction. (Count)
system.cpu.commitStats0.committedInstType::SimdUnitStrideSegmentedStore            0      0.00%    100.00% # Class of committed instruction. (Count)
system.cpu.commitStats0.committedInstType::SimdExt            0      0.00%    100.00% # Class of committed instruction. (Count)
system.cpu.commitStats0.committedInstType::SimdFloatExt            0      0.00%    100.00% # Class of committed instruction. (Count)
system.cpu.commitStats0.committedInstType::SimdConfig            0      0.00%    100.00% # Class of committed instruction. (Count)
system.cpu.commitStats0.committedInstType::total    181605890                       # Class of committed instruction. (Count)
system.cpu.commitStats0.committedControl::IsControl     19991142                       # Class of control type instructions committed (Count)
system.cpu.commitStats0.committedControl::IsDirectControl     19680971                       # Class of control type instructions committed (Count)
system.cpu.commitStats0.committedControl::IsIndirectControl       309920                       # Class of control type instructions committed (Count)
system.cpu.commitStats0.committedControl::IsCondControl     17539280                       # Class of control type instructions committed (Count)
system.cpu.commitStats0.committedControl::IsUncondControl      2451611                       # Class of control type instructions committed (Count)
system.cpu.commitStats0.committedControl::IsCall       304009                       # Class of control type instructions committed (Count)
system.cpu.commitStats0.committedControl::IsReturn       304004                       # Class of control type instructions committed (Count)
system.cpu.exec_context.thread_0.numMatAluAccesses            0                       # Number of matrix alu accesses (Count)
system.cpu.exec_context.thread_0.numCallsReturns       608013                       # Number of times a function call or return occured (Count)
system.cpu.exec_context.thread_0.numMatInsts            0                       # Number of matrix instructions (Count)
system.cpu.exec_context.thread_0.numIdleCycles            0                       # Number of idle cycles (Cycle)
system.cpu.exec_context.thread_0.numBusyCycles    187891494                       # Number of busy cycles (Cycle)
system.cpu.exec_context.thread_0.notIdleFraction            1                       # Percentage of non-idle cycles (Ratio)
system.cpu.exec_context.thread_0.idleFraction            0                       # Percentage of idle cycles (Ratio)
system.cpu.executeStats0.numInsts                   0                       # Number of executed instructions (Count)
system.cpu.executeStats0.numNop                     0                       # Number of nop insts executed (Count)
system.cpu.executeStats0.numBranches                0                       # Number of branches executed (Count)
system.cpu.executeStats0.numLoadInsts               0                       # Number of load instructions executed (Count)
system.cpu.executeStats0.numStoreInsts       34252499                       # Number of stores executed (Count)
system.cpu.executeStats0.instRate                   0                       # Inst execution rate ((Count/Cycle))
system.cpu.executeStats0.numFpAluAccesses      1310180                       # Number of float alu accesses (Count)
system.cpu.executeStats0.numFpRegReads        1344384                       # Number of times the floating registers were read (Count)
system.cpu.executeStats0.numFpRegWrites        654040                       # Number of times the floating registers were written (Count)
system.cpu.executeStats0.numIntAluAccesses    180801309                       # Number of integer alu accesses (Count)
system.cpu.executeStats0.numIntRegReads     234060158                       # Number of times the integer registers were read (Count)
system.cpu.executeStats0.numIntRegWrites    135856150                       # Number of times the integer registers were written (Count)
system.cpu.executeStats0.numMemRefs          34252499                       # Number of memory refs (Count)
system.cpu.executeStats0.numMiscRegReads     74506657                       # Number of times the Misc registers were read (Count)
system.cpu.executeStats0.numMiscRegWrites          693                       # Number of times the Misc registers were written (Count)
system.cpu.executeStats0.numVecAluAccesses            0                       # Number of vector alu accesses (Count)
system.cpu.executeStats0.numDiscardedOps            0                       # Number of ops (including micro ops) which were discarded before commit (Count)
system.cpu.fetchStats0.numInsts             100864057                       # Number of instructions fetched (thread level) (Count)
system.cpu.fetchStats0.numOps               181605890                       # Number of ops (including micro ops) fetched (thread level) (Count)
system.cpu.fetchStats0.fetchRate             0.536821                       # Number of inst fetches per cycle ((Count/Cycle))
system.cpu.fetchStats0.numBranches           19991142                       # Number of branches fetched (Count)
system.cpu.fetchStats0.branchRate            0.106397                       # Number of branch fetches per cycle (Ratio)
system.cpu.fetchStats0.numFetchSuspends             0                       # Number of times Execute suspended instruction fetching (Count)
system.cpu.interrupts.clk_domain.clock         213328                       # Clock period in ticks (Tick)
system.cpu.l1d.demandHits::cpu.data          32894340                       # number of demand (read+write) hits (Count)
system.cpu.l1d.demandHits::total             32894340                       # number of demand (read+write) hits (Count)
system.cpu.l1d.overallHits::cpu.data         32894340                       # number of overall hits (Count)
system.cpu.l1d.overallHits::total            32894340                       # number of overall hits (Count)
system.cpu.l1d.demandMisses::cpu.data         1355945                       # number of demand (read+write) misses (Count)
system.cpu.l1d.demandMisses::total            1355945                       # number of demand (read+write) misses (Count)
system.cpu.l1d.overallMisses::cpu.data        1355945                       # number of overall misses (Count)
system.cpu.l1d.overallMisses::total           1355945                       # number of overall misses (Count)
system.cpu.l1d.demandMissLatency::cpu.data 284442728754                       # number of demand (read+write) miss ticks (Tick)
system.cpu.l1d.demandMissLatency::total  284442728754                       # number of demand (read+write) miss ticks (Tick)
system.cpu.l1d.overallMissLatency::cpu.data 284442728754                       # number of overall miss ticks (Tick)
system.cpu.l1d.overallMissLatency::total 284442728754                       # number of overall miss ticks (Tick)
system.cpu.l1d.demandAccesses::cpu.data      34250285                       # number of demand (read+write) accesses (Count)
system.cpu.l1d.demandAccesses::total         34250285                       # number of demand (read+write) accesses (Count)
system.cpu.l1d.overallAccesses::cpu.data     34250285                       # number of overall (read+write) accesses (Count)
system.cpu.l1d.overallAccesses::total        34250285                       # number of overall (read+write) accesses (Count)
system.cpu.l1d.demandMissRate::cpu.data      0.039589                       # miss rate for demand accesses (Ratio)
system.cpu.l1d.demandMissRate::total         0.039589                       # miss rate for demand accesses (Ratio)
system.cpu.l1d.overallMissRate::cpu.data     0.039589                       # miss rate for overall accesses (Ratio)
system.cpu.l1d.overallMissRate::total        0.039589                       # miss rate for overall accesses (Ratio)
system.cpu.l1d.demandAvgMissLatency::cpu.data 209774.532709                       # average overall miss latency in ticks ((Tick/Count))
system.cpu.l1d.demandAvgMissLatency::total 209774.532709                       # average overall miss latency in ticks ((Tick/Count))
system.cpu.l1d.overallAvgMissLatency::cpu.data 209774.532709                       # average overall miss latency ((Tick/Count))
system.cpu.l1d.overallAvgMissLatency::total 209774.532709                       # average overall miss latency ((Tick/Count))
system.cpu.l1d.blockedCycles::no_mshrs              0                       # number of cycles access was blocked (Cycle)
system.cpu.l1d.blockedCycles::no_targets            0                       # number of cycles access was blocked (Cycle)
system.cpu.l1d.blockedCauses::no_mshrs              0                       # number of times access was blocked (Count)
system.cpu.l1d.blockedCauses::no_targets            0                       # number of times access was blocked (Count)
system.cpu.l1d.avgBlocked::no_mshrs               nan                       # average number of cycles each access was blocked ((Cycle/Count))
system.cpu.l1d.avgBlocked::no_targets             nan                       # average number of cycles each access was blocked ((Cycle/Count))
system.cpu.l1d.writebacks::writebacks           78074                       # number of writebacks (Count)
system.cpu.l1d.writebacks::total                78074                       # number of writebacks (Count)
system.cpu.l1d.demandMshrMisses::cpu.data      1355945                       # number of demand (read+write) MSHR misses (Count)
system.cpu.l1d.demandMshrMisses::total        1355945                       # number of demand (read+write) MSHR misses (Count)
system.cpu.l1d.overallMshrMisses::cpu.data      1355945                       # number of overall MSHR misses (Count)
system.cpu.l1d.overallMshrMisses::total       1355945                       # number of overall MSHR misses (Count)
system.cpu.l1d.demandMshrMissLatency::cpu.data 266363914069                       # number of demand (read+write) MSHR miss ticks (Tick)
system.cpu.l1d.demandMshrMissLatency::total 266363914069                       # number of demand (read+write) MSHR miss ticks (Tick)
system.cpu.l1d.overallMshrMissLatency::cpu.data 266363914069                       # number of overall MSHR miss ticks (Tick)
system.cpu.l1d.overallMshrMissLatency::total 266363914069                       # number of overall MSHR miss ticks (Tick)
system.cpu.l1d.demandMshrMissRate::cpu.data     0.039589                       # mshr miss ratio for demand accesses (Ratio)
system.cpu.l1d.demandMshrMissRate::total     0.039589                       # mshr miss ratio for demand accesses (Ratio)
system.cpu.l1d.overallMshrMissRate::cpu.data     0.039589                       # mshr miss ratio for overall accesses (Ratio)
system.cpu.l1d.overallMshrMissRate::total     0.039589                       # mshr miss ratio for overall accesses (Ratio)
system.cpu.l1d.demandAvgMshrMissLatency::cpu.data 196441.532709                       # average overall mshr miss latency ((Tick/Count))
system.cpu.l1d.demandAvgMshrMissLatency::total 196441.532709                       # average overall mshr miss latency ((Tick/Count))
system.cpu.l1d.overallAvgMshrMissLatency::cpu.data 196441.532709                       # average overall mshr miss latency ((Tick/Count))
system.cpu.l1d.overallAvgMshrMissLatency::total 196441.532709                       # average overall mshr miss latency ((Tick/Count))
system.cpu.l1d.replacements                   1355952                       # number of replacements (Count)
system.cpu.l1d.LockedRMWReadReq.hits::cpu.data          442                       # number of LockedRMWReadReq hits (Count)
system.cpu.l1d.LockedRMWReadReq.hits::total          442                       # number of LockedRMWReadReq hits (Count)
system.cpu.l1d.LockedRMWReadReq.misses::cpu.data           71                       # number of LockedRMWReadReq misses (Count)
system.cpu.l1d.LockedRMWReadReq.misses::total           71                       # number of LockedRMWReadReq misses (Count)
system.cpu.l1d.LockedRMWReadReq.missLatency::cpu.data     14906294                       # number of LockedRMWReadReq miss ticks (Tick)
system.cpu.l1d.LockedRMWReadReq.missLatency::total     14906294                       # number of LockedRMWReadReq miss ticks (Tick)
system.cpu.l1d.LockedRMWReadReq.accesses::cpu.data          513                       # number of LockedRMWReadReq accesses(hits+misses) (Count)
system.cpu.l1d.LockedRMWReadReq.accesses::total          513                       # number of LockedRMWReadReq accesses(hits+misses) (Count)
system.cpu.l1d.LockedRMWReadReq.missRate::cpu.data     0.138402                       # miss rate for LockedRMWReadReq accesses (Ratio)
system.cpu.l1d.LockedRMWReadReq.missRate::total     0.138402                       # miss rate for LockedRMWReadReq accesses (Ratio)
system.cpu.l1d.LockedRMWReadReq.avgMissLatency::cpu.data 209947.802817                       # average LockedRMWReadReq miss latency ((Tick/Count))
system.cpu.l1d.LockedRMWReadReq.avgMissLatency::total 209947.802817                       # average LockedRMWReadReq miss latency ((Tick/Count))
system.cpu.l1d.LockedRMWReadReq.mshrMisses::cpu.data           71                       # number of LockedRMWReadReq MSHR misses (Count)
system.cpu.l1d.LockedRMWReadReq.mshrMisses::total           71                       # number of LockedRMWReadReq MSHR misses (Count)
system.cpu.l1d.LockedRMWReadReq.mshrMissLatency::cpu.data     34759131                       # number of LockedRMWReadReq MSHR miss ticks (Tick)
system.cpu.l1d.LockedRMWReadReq.mshrMissLatency::total     34759131                       # number of LockedRMWReadReq MSHR miss ticks (Tick)
system.cpu.l1d.LockedRMWReadReq.mshrMissRate::cpu.data     0.138402                       # mshr miss rate for LockedRMWReadReq accesses (Ratio)
system.cpu.l1d.LockedRMWReadReq.mshrMissRate::total     0.138402                       # mshr miss rate for LockedRMWReadReq accesses (Ratio)
system.cpu.l1d.LockedRMWReadReq.avgMshrMissLatency::cpu.data 489565.225352                       # average LockedRMWReadReq mshr miss latency ((Tick/Count))
system.cpu.l1d.LockedRMWReadReq.avgMshrMissLatency::total 489565.225352                       # average LockedRMWReadReq mshr miss latency ((Tick/Count))
system.cpu.l1d.LockedRMWWriteReq.hits::cpu.data          513                       # number of LockedRMWWriteReq hits (Count)
system.cpu.l1d.LockedRMWWriteReq.hits::total          513                       # number of LockedRMWWriteReq hits (Count)
system.cpu.l1d.LockedRMWWriteReq.accesses::cpu.data          513                       # number of LockedRMWWriteReq accesses(hits+misses) (Count)
system.cpu.l1d.LockedRMWWriteReq.accesses::total          513                       # number of LockedRMWWriteReq accesses(hits+misses) (Count)
system.cpu.l1d.ReadReq.hits::cpu.data        28019815                       # number of ReadReq hits (Count)
system.cpu.l1d.ReadReq.hits::total           28019815                       # number of ReadReq hits (Count)
system.cpu.l1d.ReadReq.misses::cpu.data       1282651                       # number of ReadReq misses (Count)
system.cpu.l1d.ReadReq.misses::total          1282651                       # number of ReadReq misses (Count)
system.cpu.l1d.ReadReq.missLatency::cpu.data 269184283558                       # number of ReadReq miss ticks (Tick)
system.cpu.l1d.ReadReq.missLatency::total 269184283558                       # number of ReadReq miss ticks (Tick)
system.cpu.l1d.ReadReq.accesses::cpu.data     29302466                       # number of ReadReq accesses(hits+misses) (Count)
system.cpu.l1d.ReadReq.accesses::total       29302466                       # number of ReadReq accesses(hits+misses) (Count)
system.cpu.l1d.ReadReq.missRate::cpu.data     0.043773                       # miss rate for ReadReq accesses (Ratio)
system.cpu.l1d.ReadReq.missRate::total       0.043773                       # miss rate for ReadReq accesses (Ratio)
system.cpu.l1d.ReadReq.avgMissLatency::cpu.data 209865.570259                       # average ReadReq miss latency ((Tick/Count))
system.cpu.l1d.ReadReq.avgMissLatency::total 209865.570259                       # average ReadReq miss latency ((Tick/Count))
system.cpu.l1d.ReadReq.mshrMisses::cpu.data      1282651                       # number of ReadReq MSHR misses (Count)
system.cpu.l1d.ReadReq.mshrMisses::total      1282651                       # number of ReadReq MSHR misses (Count)
system.cpu.l1d.ReadReq.mshrMissLatency::cpu.data 252082697775                       # number of ReadReq MSHR miss ticks (Tick)
system.cpu.l1d.ReadReq.mshrMissLatency::total 252082697775                       # number of ReadReq MSHR miss ticks (Tick)
system.cpu.l1d.ReadReq.mshrMissRate::cpu.data     0.043773                       # mshr miss rate for ReadReq accesses (Ratio)
system.cpu.l1d.ReadReq.mshrMissRate::total     0.043773                       # mshr miss rate for ReadReq accesses (Ratio)
system.cpu.l1d.ReadReq.avgMshrMissLatency::cpu.data 196532.570259                       # average ReadReq mshr miss latency ((Tick/Count))
system.cpu.l1d.ReadReq.avgMshrMissLatency::total 196532.570259                       # average ReadReq mshr miss latency ((Tick/Count))
system.cpu.l1d.WriteReq.hits::cpu.data        4874525                       # number of WriteReq hits (Count)
system.cpu.l1d.WriteReq.hits::total           4874525                       # number of WriteReq hits (Count)
system.cpu.l1d.WriteReq.misses::cpu.data        73294                       # number of WriteReq misses (Count)
system.cpu.l1d.WriteReq.misses::total           73294                       # number of WriteReq misses (Count)
system.cpu.l1d.WriteReq.missLatency::cpu.data  15258445196                       # number of WriteReq miss ticks (Tick)
system.cpu.l1d.WriteReq.missLatency::total  15258445196                       # number of WriteReq miss ticks (Tick)
system.cpu.l1d.WriteReq.accesses::cpu.data      4947819                       # number of WriteReq accesses(hits+misses) (Count)
system.cpu.l1d.WriteReq.accesses::total       4947819                       # number of WriteReq accesses(hits+misses) (Count)
system.cpu.l1d.WriteReq.missRate::cpu.data     0.014813                       # miss rate for WriteReq accesses (Ratio)
system.cpu.l1d.WriteReq.missRate::total      0.014813                       # miss rate for WriteReq accesses (Ratio)
system.cpu.l1d.WriteReq.avgMissLatency::cpu.data 208181.368134                       # average WriteReq miss latency ((Tick/Count))
system.cpu.l1d.WriteReq.avgMissLatency::total 208181.368134                       # average WriteReq miss latency ((Tick/Count))
system.cpu.l1d.WriteReq.mshrMisses::cpu.data        73294                       # number of WriteReq MSHR misses (Count)
system.cpu.l1d.WriteReq.mshrMisses::total        73294                       # number of WriteReq MSHR misses (Count)
system.cpu.l1d.WriteReq.mshrMissLatency::cpu.data  14281216294                       # number of WriteReq MSHR miss ticks (Tick)
system.cpu.l1d.WriteReq.mshrMissLatency::total  14281216294                       # number of WriteReq MSHR miss ticks (Tick)
system.cpu.l1d.WriteReq.mshrMissRate::cpu.data     0.014813                       # mshr miss rate for WriteReq accesses (Ratio)
system.cpu.l1d.WriteReq.mshrMissRate::total     0.014813                       # mshr miss rate for WriteReq accesses (Ratio)
system.cpu.l1d.WriteReq.avgMshrMissLatency::cpu.data 194848.368134                       # average WriteReq mshr miss latency ((Tick/Count))
system.cpu.l1d.WriteReq.avgMshrMissLatency::total 194848.368134                       # average WriteReq mshr miss latency ((Tick/Count))
system.cpu.l1d.power_state.pwrStateResidencyTicks::UNDEFINED 2505157289502                       # Cumulative time (in ticks) in various power states (Tick)
system.cpu.l1d.tags.tagsInUse               63.999406                       # Average ticks per tags in use ((Tick/Count))
system.cpu.l1d.tags.totalRefs                34107326                       # Total number of references to valid blocks. (Count)
system.cpu.l1d.tags.sampledRefs               1355952                       # Sample count of references to valid blocks. (Count)
system.cpu.l1d.tags.avgRefs                 25.153786                       # Average number of references to valid blocks. ((Count/Count))
system.cpu.l1d.tags.warmupTick                 479988                       # The tick when the warmup percentage was hit. (Tick)
system.cpu.l1d.tags.occupancies::cpu.data    63.999406                       # Average occupied blocks per tick, per requestor ((Count/Tick))
system.cpu.l1d.tags.avgOccs::cpu.data        0.999991                       # Average percentage of cache occupancy ((Ratio/Tick))
system.cpu.l1d.tags.avgOccs::total           0.999991                       # Average percentage of cache occupancy ((Ratio/Tick))
system.cpu.l1d.tags.occupanciesTaskId::1024           64                       # Occupied blocks per task id (Count)
system.cpu.l1d.tags.ageTaskId_1024::0              12                       # Occupied blocks per task id, per block age (Count)
system.cpu.l1d.tags.ageTaskId_1024::1              44                       # Occupied blocks per task id, per block age (Count)
system.cpu.l1d.tags.ageTaskId_1024::2               7                       # Occupied blocks per task id, per block age (Count)
system.cpu.l1d.tags.ageTaskId_1024::4               1                       # Occupied blocks per task id, per block age (Count)
system.cpu.l1d.tags.ratioOccsTaskId::1024            1                       # Ratio of occupied blocks and all blocks, per task id (Ratio)
system.cpu.l1d.tags.tagAccesses              69858638                       # Number of tag accesses (Count)
system.cpu.l1d.tags.dataAccesses             69858638                       # Number of data accesses (Count)
system.cpu.l1d.tags.power_state.pwrStateResidencyTicks::UNDEFINED 2505157289502                       # Cumulative time (in ticks) in various power states (Tick)
system.cpu.l1i.demandHits::cpu.inst         133285306                       # number of demand (read+write) hits (Count)
system.cpu.l1i.demandHits::total            133285306                       # number of demand (read+write) hits (Count)
system.cpu.l1i.overallHits::cpu.inst        133285306                       # number of overall hits (Count)
system.cpu.l1i.overallHits::total           133285306                       # number of overall hits (Count)
system.cpu.l1i.demandMisses::cpu.inst           19018                       # number of demand (read+write) misses (Count)
system.cpu.l1i.demandMisses::total              19018                       # number of demand (read+write) misses (Count)
system.cpu.l1i.overallMisses::cpu.inst          19018                       # number of overall misses (Count)
system.cpu.l1i.overallMisses::total             19018                       # number of overall misses (Count)
system.cpu.l1i.demandMissLatency::cpu.inst   4086044513                       # number of demand (read+write) miss ticks (Tick)
system.cpu.l1i.demandMissLatency::total    4086044513                       # number of demand (read+write) miss ticks (Tick)
system.cpu.l1i.overallMissLatency::cpu.inst   4086044513                       # number of overall miss ticks (Tick)
system.cpu.l1i.overallMissLatency::total   4086044513                       # number of overall miss ticks (Tick)
system.cpu.l1i.demandAccesses::cpu.inst     133304324                       # number of demand (read+write) accesses (Count)
system.cpu.l1i.demandAccesses::total        133304324                       # number of demand (read+write) accesses (Count)
system.cpu.l1i.overallAccesses::cpu.inst    133304324                       # number of overall (read+write) accesses (Count)
system.cpu.l1i.overallAccesses::total       133304324                       # number of overall (read+write) accesses (Count)
system.cpu.l1i.demandMissRate::cpu.inst      0.000143                       # miss rate for demand accesses (Ratio)
system.cpu.l1i.demandMissRate::total         0.000143                       # miss rate for demand accesses (Ratio)
system.cpu.l1i.overallMissRate::cpu.inst     0.000143                       # miss rate for overall accesses (Ratio)
system.cpu.l1i.overallMissRate::total        0.000143                       # miss rate for overall accesses (Ratio)
system.cpu.l1i.demandAvgMissLatency::cpu.inst 214851.430908                       # average overall miss latency in ticks ((Tick/Count))
system.cpu.l1i.demandAvgMissLatency::total 214851.430908                       # average overall miss latency in ticks ((Tick/Count))
system.cpu.l1i.overallAvgMissLatency::cpu.inst 214851.430908                       # average overall miss latency ((Tick/Count))
system.cpu.l1i.overallAvgMissLatency::total 214851.430908                       # average overall miss latency ((Tick/Count))
system.cpu.l1i.blockedCycles::no_mshrs              0                       # number of cycles access was blocked (Cycle)
system.cpu.l1i.blockedCycles::no_targets            0                       # number of cycles access was blocked (Cycle)
system.cpu.l1i.blockedCauses::no_mshrs              0                       # number of times access was blocked (Count)
system.cpu.l1i.blockedCauses::no_targets            0                       # number of times access was blocked (Count)
system.cpu.l1i.avgBlocked::no_mshrs               nan                       # average number of cycles each access was blocked ((Cycle/Count))
system.cpu.l1i.avgBlocked::no_targets             nan                       # average number of cycles each access was blocked ((Cycle/Count))
system.cpu.l1i.demandMshrMisses::cpu.inst        19018                       # number of demand (read+write) MSHR misses (Count)
system.cpu.l1i.demandMshrMisses::total          19018                       # number of demand (read+write) MSHR misses (Count)
system.cpu.l1i.overallMshrMisses::cpu.inst        19018                       # number of overall MSHR misses (Count)
system.cpu.l1i.overallMshrMisses::total         19018                       # number of overall MSHR misses (Count)
system.cpu.l1i.demandMshrMissLatency::cpu.inst   3832477519                       # number of demand (read+write) MSHR miss ticks (Tick)
system.cpu.l1i.demandMshrMissLatency::total   3832477519                       # number of demand (read+write) MSHR miss ticks (Tick)
system.cpu.l1i.overallMshrMissLatency::cpu.inst   3832477519                       # number of overall MSHR miss ticks (Tick)
system.cpu.l1i.overallMshrMissLatency::total   3832477519                       # number of overall MSHR miss ticks (Tick)
system.cpu.l1i.demandMshrMissRate::cpu.inst     0.000143                       # mshr miss ratio for demand accesses (Ratio)
system.cpu.l1i.demandMshrMissRate::total     0.000143                       # mshr miss ratio for demand accesses (Ratio)
system.cpu.l1i.overallMshrMissRate::cpu.inst     0.000143                       # mshr miss ratio for overall accesses (Ratio)
system.cpu.l1i.overallMshrMissRate::total     0.000143                       # mshr miss ratio for overall accesses (Ratio)
system.cpu.l1i.demandAvgMshrMissLatency::cpu.inst 201518.430908                       # average overall mshr miss latency ((Tick/Count))
system.cpu.l1i.demandAvgMshrMissLatency::total 201518.430908                       # average overall mshr miss latency ((Tick/Count))
system.cpu.l1i.overallAvgMshrMissLatency::cpu.inst 201518.430908                       # average overall mshr miss latency ((Tick/Count))
system.cpu.l1i.overallAvgMshrMissLatency::total 201518.430908                       # average overall mshr miss latency ((Tick/Count))
system.cpu.l1i.replacements                     18954                       # number of replacements (Count)
system.cpu.l1i.ReadReq.hits::cpu.inst       133285306                       # number of ReadReq hits (Count)
system.cpu.l1i.ReadReq.hits::total          133285306                       # number of ReadReq hits (Count)
system.cpu.l1i.ReadReq.misses::cpu.inst         19018                       # number of ReadReq misses (Count)
system.cpu.l1i.ReadReq.misses::total            19018                       # number of ReadReq misses (Count)
system.cpu.l1i.ReadReq.missLatency::cpu.inst   4086044513                       # number of ReadReq miss ticks (Tick)
system.cpu.l1i.ReadReq.missLatency::total   4086044513                       # number of ReadReq miss ticks (Tick)
system.cpu.l1i.ReadReq.accesses::cpu.inst    133304324                       # number of ReadReq accesses(hits+misses) (Count)
system.cpu.l1i.ReadReq.accesses::total      133304324                       # number of ReadReq accesses(hits+misses) (Count)
system.cpu.l1i.ReadReq.missRate::cpu.inst     0.000143                       # miss rate for ReadReq accesses (Ratio)
system.cpu.l1i.ReadReq.missRate::total       0.000143                       # miss rate for ReadReq accesses (Ratio)
system.cpu.l1i.ReadReq.avgMissLatency::cpu.inst 214851.430908                       # average ReadReq miss latency ((Tick/Count))
system.cpu.l1i.ReadReq.avgMissLatency::total 214851.430908                       # average ReadReq miss latency ((Tick/Count))
system.cpu.l1i.ReadReq.mshrMisses::cpu.inst        19018                       # number of ReadReq MSHR misses (Count)
system.cpu.l1i.ReadReq.mshrMisses::total        19018                       # number of ReadReq MSHR misses (Count)
system.cpu.l1i.ReadReq.mshrMissLatency::cpu.inst   3832477519                       # number of ReadReq MSHR miss ticks (Tick)
system.cpu.l1i.ReadReq.mshrMissLatency::total   3832477519                       # number of ReadReq MSHR miss ticks (Tick)
system.cpu.l1i.ReadReq.mshrMissRate::cpu.inst     0.000143                       # mshr miss rate for ReadReq accesses (Ratio)
system.cpu.l1i.ReadReq.mshrMissRate::total     0.000143                       # mshr miss rate for ReadReq accesses (Ratio)
system.cpu.l1i.ReadReq.avgMshrMissLatency::cpu.inst 201518.430908                       # average ReadReq mshr miss latency ((Tick/Count))
system.cpu.l1i.ReadReq.avgMshrMissLatency::total 201518.430908                       # average ReadReq mshr miss latency ((Tick/Count))
system.cpu.l1i.power_state.pwrStateResidencyTicks::UNDEFINED 2505157289502                       # Cumulative time (in ticks) in various power states (Tick)
system.cpu.l1i.tags.tagsInUse               63.998259                       # Average ticks per tags in use ((Tick/Count))
system.cpu.l1i.tags.totalRefs                82862268                       # Total number of references to valid blocks. (Count)
system.cpu.l1i.tags.sampledRefs                 18954                       # Sample count of references to valid blocks. (Count)
system.cpu.l1i.tags.avgRefs               4371.756252                       # Average number of references to valid blocks. ((Count/Count))
system.cpu.l1i.tags.warmupTick                 199995                       # The tick when the warmup percentage was hit. (Tick)
system.cpu.l1i.tags.occupancies::cpu.inst    63.998259                       # Average occupied blocks per tick, per requestor ((Count/Tick))
system.cpu.l1i.tags.avgOccs::cpu.inst        0.999973                       # Average percentage of cache occupancy ((Ratio/Tick))
system.cpu.l1i.tags.avgOccs::total           0.999973                       # Average percentage of cache occupancy ((Ratio/Tick))
system.cpu.l1i.tags.occupanciesTaskId::1024           64                       # Occupied blocks per task id (Count)
system.cpu.l1i.tags.ageTaskId_1024::0               7                       # Occupied blocks per task id, per block age (Count)
system.cpu.l1i.tags.ageTaskId_1024::1               5                       # Occupied blocks per task id, per block age (Count)
system.cpu.l1i.tags.ageTaskId_1024::4              52                       # Occupied blocks per task id, per block age (Count)
system.cpu.l1i.tags.ratioOccsTaskId::1024            1                       # Ratio of occupied blocks and all blocks, per task id (Ratio)
system.cpu.l1i.tags.tagAccesses             266627666                       # Number of tag accesses (Count)
system.cpu.l1i.tags.dataAccesses            266627666                       # Number of data accesses (Count)
system.cpu.l1i.tags.power_state.pwrStateResidencyTicks::UNDEFINED 2505157289502                       # Cumulative time (in ticks) in various power states (Tick)
system.cpu.mmu.dtb.rdAccesses                29303419                       # TLB accesses on read requests (Count)
system.cpu.mmu.dtb.wrAccesses                 4949125                       # TLB accesses on write requests (Count)
system.cpu.mmu.dtb.rdMisses                      7100                       # TLB misses on read requests (Count)
system.cpu.mmu.dtb.wrMisses                      1630                       # TLB misses on write requests (Count)
system.cpu.mmu.dtb.walker.power_state.pwrStateResidencyTicks::UNDEFINED 2505157289502                       # Cumulative time (in ticks) in various power states (Tick)
system.cpu.mmu.itb.rdAccesses                       0                       # TLB accesses on read requests (Count)
system.cpu.mmu.itb.wrAccesses               133304437                       # TLB accesses on write requests (Count)
system.cpu.mmu.itb.rdMisses                         0                       # TLB misses on read requests (Count)
system.cpu.mmu.itb.wrMisses                       472                       # TLB misses on write requests (Count)
system.cpu.mmu.itb.walker.power_state.pwrStateResidencyTicks::UNDEFINED 2505157289502                       # Cumulative time (in ticks) in various power states (Tick)
system.cpu.power_state.pwrStateResidencyTicks::ON 2505157289502                       # Cumulative time (in ticks) in various power states (Tick)
system.cpu.thread_0.numInsts                        0                       # Number of Instructions committed (Count)
system.cpu.thread_0.numOps                          0                       # Number of Ops committed (Count)
system.cpu.thread_0.numMemRefs                      0                       # Number of Memory References (Count)
system.cpu.workload.numSyscalls                   121                       # Number of system calls (Count)
system.mem_ctrl.avgPriority_writebacks::samples     63582.00                       # Average QoS priority value for accepted requests (Count)
system.mem_ctrl.avgPriority_cpu.inst::samples     19018.00                       # Average QoS priority value for accepted requests (Count)
system.mem_ctrl.avgPriority_cpu.data::samples   1268591.00                       # Average QoS priority value for accepted requests (Count)
system.mem_ctrl.priorityMinLatency       0.000000018750                       # per QoS priority minimum request to response latency (Second)
system.mem_ctrl.priorityMaxLatency       0.159496045000                       # per QoS priority maximum request to response latency (Second)
system.mem_ctrl.numReadWriteTurnArounds          3532                       # Number of turnarounds from READ to WRITE (Count)
system.mem_ctrl.numWriteReadTurnArounds          3532                       # Number of turnarounds from WRITE to READ (Count)
system.mem_ctrl.numStayReadState              3296551                       # Number of times bus staying in READ state (Count)
system.mem_ctrl.numStayWriteState               60152                       # Number of times bus staying in WRITE state (Count)
system.mem_ctrl.readReqs                      1375034                       # Number of read requests accepted (Count)
system.mem_ctrl.writeReqs                       78074                       # Number of write requests accepted (Count)
system.mem_ctrl.readBursts                    1375034                       # Number of controller read bursts, including those serviced by the write queue (Count)
system.mem_ctrl.writeBursts                     78074                       # Number of controller write bursts, including those merged in the write queue (Count)
system.mem_ctrl.servicedByWrQ                   87425                       # Number of controller read bursts serviced by the write queue (Count)
system.mem_ctrl.mergedWrBursts                  14492                       # Number of controller write bursts merged with an existing one (Count)
system.mem_ctrl.neitherReadNorWriteReqs             0                       # Number of requests that are neither read nor write (Count)
system.mem_ctrl.avgRdQLen                        1.00                       # Average read queue length when enqueuing ((Count/Tick))
system.mem_ctrl.avgWrQLen                       24.56                       # Average write queue length when enqueuing ((Count/Tick))
system.mem_ctrl.numRdRetry                          0                       # Number of times read queue was full causing retry (Count)
system.mem_ctrl.numWrRetry                          0                       # Number of times write queue was full causing retry (Count)
system.mem_ctrl.readPktSize::0                      0                       # Read request sizes (log2) (Count)
system.mem_ctrl.readPktSize::1                      0                       # Read request sizes (log2) (Count)
system.mem_ctrl.readPktSize::2                      0                       # Read request sizes (log2) (Count)
system.mem_ctrl.readPktSize::3                      0                       # Read request sizes (log2) (Count)
system.mem_ctrl.readPktSize::4                      0                       # Read request sizes (log2) (Count)
system.mem_ctrl.readPktSize::5                      0                       # Read request sizes (log2) (Count)
system.mem_ctrl.readPktSize::6                1375034                       # Read request sizes (log2) (Count)
system.mem_ctrl.writePktSize::0                     0                       # Write request sizes (log2) (Count)
system.mem_ctrl.writePktSize::1                     0                       # Write request sizes (log2) (Count)
system.mem_ctrl.writePktSize::2                     0                       # Write request sizes (log2) (Count)
system.mem_ctrl.writePktSize::3                     0                       # Write request sizes (log2) (Count)
system.mem_ctrl.writePktSize::4                     0                       # Write request sizes (log2) (Count)
system.mem_ctrl.writePktSize::5                     0                       # Write request sizes (log2) (Count)
system.mem_ctrl.writePktSize::6                 78074                       # Write request sizes (log2) (Count)
system.mem_ctrl.rdQLenPdf::0                  1287605                       # What read queue length does an incoming req see (Count)
system.mem_ctrl.rdQLenPdf::1                        4                       # What read queue length does an incoming req see (Count)
system.mem_ctrl.rdQLenPdf::2                        0                       # What read queue length does an incoming req see (Count)
system.mem_ctrl.rdQLenPdf::3                        0                       # What read queue length does an incoming req see (Count)
system.mem_ctrl.rdQLenPdf::4                        0                       # What read queue length does an incoming req see (Count)
system.mem_ctrl.rdQLenPdf::5                        0                       # What read queue length does an incoming req see (Count)
system.mem_ctrl.rdQLenPdf::6                        0                       # What read queue length does an incoming req see (Count)
system.mem_ctrl.rdQLenPdf::7                        0                       # What read queue length does an incoming req see (Count)
system.mem_ctrl.rdQLenPdf::8                        0                       # What read queue length does an incoming req see (Count)
system.mem_ctrl.rdQLenPdf::9                        0                       # What read queue length does an incoming req see (Count)
system.mem_ctrl.rdQLenPdf::10                       0                       # What read queue length does an incoming req see (Count)
system.mem_ctrl.rdQLenPdf::11                       0                       # What read queue length does an incoming req see (Count)
system.mem_ctrl.rdQLenPdf::12                       0                       # What read queue length does an incoming req see (Count)
system.mem_ctrl.rdQLenPdf::13                       0                       # What read queue length does an incoming req see (Count)
system.mem_ctrl.rdQLenPdf::14                       0                       # What read queue length does an incoming req see (Count)
system.mem_ctrl.rdQLenPdf::15                       0                       # What read queue length does an incoming req see (Count)
system.mem_ctrl.rdQLenPdf::16                       0                       # What read queue length does an incoming req see (Count)
system.mem_ctrl.rdQLenPdf::17                       0                       # What read queue length does an incoming req see (Count)
system.mem_ctrl.rdQLenPdf::18                       0                       # What read queue length does an incoming req see (Count)
system.mem_ctrl.rdQLenPdf::19                       0                       # What read queue length does an incoming req see (Count)
system.mem_ctrl.rdQLenPdf::20                       0                       # What read queue length does an incoming req see (Count)
system.mem_ctrl.rdQLenPdf::21                       0                       # What read queue length does an incoming req see (Count)
system.mem_ctrl.rdQLenPdf::22                       0                       # What read queue length does an incoming req see (Count)
system.mem_ctrl.rdQLenPdf::23                       0                       # What read queue length does an incoming req see (Count)
system.mem_ctrl.rdQLenPdf::24                       0                       # What read queue length does an incoming req see (Count)
system.mem_ctrl.rdQLenPdf::25                       0                       # What read queue length does an incoming req see (Count)
system.mem_ctrl.rdQLenPdf::26                       0                       # What read queue length does an incoming req see (Count)
system.mem_ctrl.rdQLenPdf::27                       0                       # What read queue length does an incoming req see (Count)
system.mem_ctrl.rdQLenPdf::28                       0                       # What read queue length does an incoming req see (Count)
system.mem_ctrl.rdQLenPdf::29                       0                       # What read queue length does an incoming req see (Count)
system.mem_ctrl.rdQLenPdf::30                       0                       # What read queue length does an incoming req see (Count)
system.mem_ctrl.rdQLenPdf::31                       0                       # What read queue length does an incoming req see (Count)
system.mem_ctrl.wrQLenPdf::0                        1                       # What write queue length does an incoming req see (Count)
system.mem_ctrl.wrQLenPdf::1                        1                       # What write queue length does an incoming req see (Count)
system.mem_ctrl.wrQLenPdf::2                        1                       # What write queue length does an incoming req see (Count)
system.mem_ctrl.wrQLenPdf::3                        1                       # What write queue length does an incoming req see (Count)
system.mem_ctrl.wrQLenPdf::4                        1                       # What write queue length does an incoming req see (Count)
system.mem_ctrl.wrQLenPdf::5                        1                       # What write queue length does an incoming req see (Count)
system.mem_ctrl.wrQLenPdf::6                        1                       # What write queue length does an incoming req see (Count)
system.mem_ctrl.wrQLenPdf::7                        1                       # What write queue length does an incoming req see (Count)
system.mem_ctrl.wrQLenPdf::8                        1                       # What write queue length does an incoming req see (Count)
system.mem_ctrl.wrQLenPdf::9                        1                       # What write queue length does an incoming req see (Count)
system.mem_ctrl.wrQLenPdf::10                       1                       # What write queue length does an incoming req see (Count)
system.mem_ctrl.wrQLenPdf::11                       1                       # What write queue length does an incoming req see (Count)
system.mem_ctrl.wrQLenPdf::12                       1                       # What write queue length does an incoming req see (Count)
system.mem_ctrl.wrQLenPdf::13                       1                       # What write queue length does an incoming req see (Count)
system.mem_ctrl.wrQLenPdf::14                       1                       # What write queue length does an incoming req see (Count)
system.mem_ctrl.wrQLenPdf::15                    3512                       # What write queue length does an incoming req see (Count)
system.mem_ctrl.wrQLenPdf::16                    3529                       # What write queue length does an incoming req see (Count)
system.mem_ctrl.wrQLenPdf::17                    3533                       # What write queue length does an incoming req see (Count)
system.mem_ctrl.wrQLenPdf::18                    3533                       # What write queue length does an incoming req see (Count)
system.mem_ctrl.wrQLenPdf::19                    3533                       # What write queue length does an incoming req see (Count)
system.mem_ctrl.wrQLenPdf::20                    3533                       # What write queue length does an incoming req see (Count)
system.mem_ctrl.wrQLenPdf::21                    3533                       # What write queue length does an incoming req see (Count)
system.mem_ctrl.wrQLenPdf::22                    3533                       # What write queue length does an incoming req see (Count)
system.mem_ctrl.wrQLenPdf::23                    3533                       # What write queue length does an incoming req see (Count)
system.mem_ctrl.wrQLenPdf::24                    3533                       # What write queue length does an incoming req see (Count)
system.mem_ctrl.wrQLenPdf::25                    3533                       # What write queue length does an incoming req see (Count)
system.mem_ctrl.wrQLenPdf::26                    3533                       # What write queue length does an incoming req see (Count)
system.mem_ctrl.wrQLenPdf::27                    3533                       # What write queue length does an incoming req see (Count)
system.mem_ctrl.wrQLenPdf::28                    3533                       # What write queue length does an incoming req see (Count)
system.mem_ctrl.wrQLenPdf::29                    3533                       # What write queue length does an incoming req see (Count)
system.mem_ctrl.wrQLenPdf::30                    3533                       # What write queue length does an incoming req see (Count)
system.mem_ctrl.wrQLenPdf::31                    3532                       # What write queue length does an incoming req see (Count)
system.mem_ctrl.wrQLenPdf::32                    3532                       # What write queue length does an incoming req see (Count)
system.mem_ctrl.wrQLenPdf::33                       0                       # What write queue length does an incoming req see (Count)
system.mem_ctrl.wrQLenPdf::34                       0                       # What write queue length does an incoming req see (Count)
system.mem_ctrl.wrQLenPdf::35                       0                       # What write queue length does an incoming req see (Count)
system.mem_ctrl.wrQLenPdf::36                       0                       # What write queue length does an incoming req see (Count)
system.mem_ctrl.wrQLenPdf::37                       0                       # What write queue length does an incoming req see (Count)
system.mem_ctrl.wrQLenPdf::38                       0                       # What write queue length does an incoming req see (Count)
system.mem_ctrl.wrQLenPdf::39                       0                       # What write queue length does an incoming req see (Count)
system.mem_ctrl.wrQLenPdf::40                       0                       # What write queue length does an incoming req see (Count)
system.mem_ctrl.wrQLenPdf::41                       0                       # What write queue length does an incoming req see (Count)
system.mem_ctrl.wrQLenPdf::42                       0                       # What write queue length does an incoming req see (Count)
system.mem_ctrl.wrQLenPdf::43                       0                       # What write queue length does an incoming req see (Count)
system.mem_ctrl.wrQLenPdf::44                       0                       # What write queue length does an incoming req see (Count)
system.mem_ctrl.wrQLenPdf::45                       0                       # What write queue length does an incoming req see (Count)
system.mem_ctrl.wrQLenPdf::46                       0                       # What write queue length does an incoming req see (Count)
system.mem_ctrl.wrQLenPdf::47                       0                       # What write queue length does an incoming req see (Count)
system.mem_ctrl.wrQLenPdf::48                       0                       # What write queue length does an incoming req see (Count)
system.mem_ctrl.wrQLenPdf::49                       0                       # What write queue length does an incoming req see (Count)
system.mem_ctrl.wrQLenPdf::50                       0                       # What write queue length does an incoming req see (Count)
system.mem_ctrl.wrQLenPdf::51                       0                       # What write queue length does an incoming req see (Count)
system.mem_ctrl.wrQLenPdf::52                       0                       # What write queue length does an incoming req see (Count)
system.mem_ctrl.wrQLenPdf::53                       0                       # What write queue length does an incoming req see (Count)
system.mem_ctrl.wrQLenPdf::54                       0                       # What write queue length does an incoming req see (Count)
system.mem_ctrl.wrQLenPdf::55                       0                       # What write queue length does an incoming req see (Count)
system.mem_ctrl.wrQLenPdf::56                       0                       # What write queue length does an incoming req see (Count)
system.mem_ctrl.wrQLenPdf::57                       0                       # What write queue length does an incoming req see (Count)
system.mem_ctrl.wrQLenPdf::58                       0                       # What write queue length does an incoming req see (Count)
system.mem_ctrl.wrQLenPdf::59                       0                       # What write queue length does an incoming req see (Count)
system.mem_ctrl.wrQLenPdf::60                       0                       # What write queue length does an incoming req see (Count)
system.mem_ctrl.wrQLenPdf::61                       0                       # What write queue length does an incoming req see (Count)
system.mem_ctrl.wrQLenPdf::62                       0                       # What write queue length does an incoming req see (Count)
system.mem_ctrl.wrQLenPdf::63                       0                       # What write queue length does an incoming req see (Count)
system.mem_ctrl.rdPerTurnAround::samples         3532                       # Reads before turning the bus around for writes (Count)
system.mem_ctrl.rdPerTurnAround::mean      363.904304                       # Reads before turning the bus around for writes (Count)
system.mem_ctrl.rdPerTurnAround::gmean      54.775040                       # Reads before turning the bus around for writes (Count)
system.mem_ctrl.rdPerTurnAround::stdev    1118.913991                       # Reads before turning the bus around for writes (Count)
system.mem_ctrl.rdPerTurnAround::0-2047          3191     90.35%     90.35% # Reads before turning the bus around for writes (Count)
system.mem_ctrl.rdPerTurnAround::2048-4095          293      8.30%     98.64% # Reads before turning the bus around for writes (Count)
system.mem_ctrl.rdPerTurnAround::4096-6143           47      1.33%     99.97% # Reads before turning the bus around for writes (Count)
system.mem_ctrl.rdPerTurnAround::34816-36863            1      0.03%    100.00% # Reads before turning the bus around for writes (Count)
system.mem_ctrl.rdPerTurnAround::total           3532                       # Reads before turning the bus around for writes (Count)
system.mem_ctrl.wrPerTurnAround::samples         3532                       # Writes before turning the bus around for reads (Count)
system.mem_ctrl.wrPerTurnAround::mean       17.992922                       # Writes before turning the bus around for reads (Count)
system.mem_ctrl.wrPerTurnAround::gmean      17.992648                       # Writes before turning the bus around for reads (Count)
system.mem_ctrl.wrPerTurnAround::stdev       0.096414                       # Writes before turning the bus around for reads (Count)
system.mem_ctrl.wrPerTurnAround::16                 4      0.11%      0.11% # Writes before turning the bus around for reads (Count)
system.mem_ctrl.wrPerTurnAround::17                17      0.48%      0.59% # Writes before turning the bus around for reads (Count)
system.mem_ctrl.wrPerTurnAround::18              3511     99.41%    100.00% # Writes before turning the bus around for reads (Count)
system.mem_ctrl.wrPerTurnAround::total           3532                       # Writes before turning the bus around for reads (Count)
system.mem_ctrl.bytesReadWrQ                  5595200                       # Total number of bytes read from write queue (Byte)
system.mem_ctrl.bytesReadSys                 88002176                       # Total read bytes from the system interface side (Byte)
system.mem_ctrl.bytesWrittenSys               4996736                       # Total written bytes from the system interface side (Byte)
system.mem_ctrl.avgRdBWSys               35128403.46144252                       # Average system read bandwidth in Byte/s ((Byte/Second))
system.mem_ctrl.avgWrBWSys               1994579.74991794                       # Average system write bandwidth in Byte/s ((Byte/Second))
system.mem_ctrl.totGap                   2505157076174                       # Total gap between requests (Tick)
system.mem_ctrl.avgGap                     1723999.23                       # Average gap between requests ((Tick/Count))
system.mem_ctrl.requestorReadBytes::cpu.inst      1217152                       # Per-requestor bytes read from memory (Byte)
system.mem_ctrl.requestorReadBytes::cpu.data     81189824                       # Per-requestor bytes read from memory (Byte)
system.mem_ctrl.requestorWriteBytes::writebacks      4067264                       # Per-requestor bytes write to memory (Byte)
system.mem_ctrl.requestorReadRate::cpu.inst 485858.514792880567                       # Per-requestor bytes read from memory rate ((Byte/Second))
system.mem_ctrl.requestorReadRate::cpu.data 32409072.412431128323                       # Per-requestor bytes read from memory rate ((Byte/Second))
system.mem_ctrl.requestorWriteRate::writebacks 1623556.339972781250                       # Per-requestor bytes write to memory rate ((Byte/Second))
system.mem_ctrl.requestorReadAccesses::cpu.inst        19018                       # Per-requestor read serviced memory accesses (Count)
system.mem_ctrl.requestorReadAccesses::cpu.data      1356016                       # Per-requestor read serviced memory accesses (Count)
system.mem_ctrl.requestorWriteAccesses::writebacks        78074                       # Per-requestor write serviced memory accesses (Count)
system.mem_ctrl.requestorReadTotalLat::cpu.inst    609946323                       # Per-requestor read total memory access latency (Tick)
system.mem_ctrl.requestorReadTotalLat::cpu.data  39372031598                       # Per-requestor read total memory access latency (Tick)
system.mem_ctrl.requestorWriteTotalLat::writebacks 58687413265036                       # Per-requestor write total memory access latency (Tick)
system.mem_ctrl.requestorReadAvgLat::cpu.inst     32072.05                       # Per-requestor read average memory access latency ((Tick/Count))
system.mem_ctrl.requestorReadAvgLat::cpu.data     29035.08                       # Per-requestor read average memory access latency ((Tick/Count))
system.mem_ctrl.requestorWriteAvgLat::writebacks 751689592.76                       # Per-requestor write average memory access latency ((Tick/Count))
system.mem_ctrl.dram.bytesRead::cpu.inst      1217152                       # Number of bytes read from this memory (Byte)
system.mem_ctrl.dram.bytesRead::cpu.data     86785024                       # Number of bytes read from this memory (Byte)
system.mem_ctrl.dram.bytesRead::total        88002176                       # Number of bytes read from this memory (Byte)
system.mem_ctrl.dram.bytesInstRead::cpu.inst      1217152                       # Number of instructions bytes read from this memory (Byte)
system.mem_ctrl.dram.bytesInstRead::total      1217152                       # Number of instructions bytes read from this memory (Byte)
system.mem_ctrl.dram.bytesWritten::writebacks      4996736                       # Number of bytes written to this memory (Byte)
system.mem_ctrl.dram.bytesWritten::total      4996736                       # Number of bytes written to this memory (Byte)
system.mem_ctrl.dram.numReads::cpu.inst         19018                       # Number of read requests responded to by this memory (Count)
system.mem_ctrl.dram.numReads::cpu.data       1356016                       # Number of read requests responded to by this memory (Count)
system.mem_ctrl.dram.numReads::total          1375034                       # Number of read requests responded to by this memory (Count)
system.mem_ctrl.dram.numWrites::writebacks        78074                       # Number of write requests responded to by this memory (Count)
system.mem_ctrl.dram.numWrites::total           78074                       # Number of write requests responded to by this memory (Count)
system.mem_ctrl.dram.bwRead::cpu.inst          485859                       # Total read bandwidth from this memory ((Byte/Second))
system.mem_ctrl.dram.bwRead::cpu.data        34642545                       # Total read bandwidth from this memory ((Byte/Second))
system.mem_ctrl.dram.bwRead::total           35128403                       # Total read bandwidth from this memory ((Byte/Second))
system.mem_ctrl.dram.bwInstRead::cpu.inst       485859                       # Instruction read bandwidth from this memory ((Byte/Second))
system.mem_ctrl.dram.bwInstRead::total         485859                       # Instruction read bandwidth from this memory ((Byte/Second))
system.mem_ctrl.dram.bwWrite::writebacks      1994580                       # Write bandwidth from this memory ((Byte/Second))
system.mem_ctrl.dram.bwWrite::total           1994580                       # Write bandwidth from this memory ((Byte/Second))
system.mem_ctrl.dram.bwTotal::writebacks      1994580                       # Total bandwidth to/from this memory ((Byte/Second))
system.mem_ctrl.dram.bwTotal::cpu.inst         485859                       # Total bandwidth to/from this memory ((Byte/Second))
system.mem_ctrl.dram.bwTotal::cpu.data       34642545                       # Total bandwidth to/from this memory ((Byte/Second))
system.mem_ctrl.dram.bwTotal::total          37122983                       # Total bandwidth to/from this memory ((Byte/Second))
system.mem_ctrl.dram.readBursts               1287609                       # Number of DRAM read bursts (Count)
system.mem_ctrl.dram.writeBursts                63551                       # Number of DRAM write bursts (Count)
system.mem_ctrl.dram.perBankRdBursts::0         30059                       # Per bank write bursts (Count)
system.mem_ctrl.dram.perBankRdBursts::1         27942                       # Per bank write bursts (Count)
system.mem_ctrl.dram.perBankRdBursts::2         29761                       # Per bank write bursts (Count)
system.mem_ctrl.dram.perBankRdBursts::3         27251                       # Per bank write bursts (Count)
system.mem_ctrl.dram.perBankRdBursts::4         35918                       # Per bank write bursts (Count)
system.mem_ctrl.dram.perBankRdBursts::5         30293                       # Per bank write bursts (Count)
system.mem_ctrl.dram.perBankRdBursts::6         27292                       # Per bank write bursts (Count)
system.mem_ctrl.dram.perBankRdBursts::7        306504                       # Per bank write bursts (Count)
system.mem_ctrl.dram.perBankRdBursts::8         24588                       # Per bank write bursts (Count)
system.mem_ctrl.dram.perBankRdBursts::9         23563                       # Per bank write bursts (Count)
system.mem_ctrl.dram.perBankRdBursts::10        24507                       # Per bank write bursts (Count)
system.mem_ctrl.dram.perBankRdBursts::11       234078                       # Per bank write bursts (Count)
system.mem_ctrl.dram.perBankRdBursts::12       381159                       # Per bank write bursts (Count)
system.mem_ctrl.dram.perBankRdBursts::13        32979                       # Per bank write bursts (Count)
system.mem_ctrl.dram.perBankRdBursts::14        22965                       # Per bank write bursts (Count)
system.mem_ctrl.dram.perBankRdBursts::15        28750                       # Per bank write bursts (Count)
system.mem_ctrl.dram.perBankWrBursts::0          3205                       # Per bank write bursts (Count)
system.mem_ctrl.dram.perBankWrBursts::1          3129                       # Per bank write bursts (Count)
system.mem_ctrl.dram.perBankWrBursts::2          2890                       # Per bank write bursts (Count)
system.mem_ctrl.dram.perBankWrBursts::3          3262                       # Per bank write bursts (Count)
system.mem_ctrl.dram.perBankWrBursts::4          3322                       # Per bank write bursts (Count)
system.mem_ctrl.dram.perBankWrBursts::5          3407                       # Per bank write bursts (Count)
system.mem_ctrl.dram.perBankWrBursts::6          3293                       # Per bank write bursts (Count)
system.mem_ctrl.dram.perBankWrBursts::7          6230                       # Per bank write bursts (Count)
system.mem_ctrl.dram.perBankWrBursts::8          2993                       # Per bank write bursts (Count)
system.mem_ctrl.dram.perBankWrBursts::9          2966                       # Per bank write bursts (Count)
system.mem_ctrl.dram.perBankWrBursts::10         2942                       # Per bank write bursts (Count)
system.mem_ctrl.dram.perBankWrBursts::11         6224                       # Per bank write bursts (Count)
system.mem_ctrl.dram.perBankWrBursts::12        10517                       # Per bank write bursts (Count)
system.mem_ctrl.dram.perBankWrBursts::13         3234                       # Per bank write bursts (Count)
system.mem_ctrl.dram.perBankWrBursts::14         2949                       # Per bank write bursts (Count)
system.mem_ctrl.dram.perBankWrBursts::15         2988                       # Per bank write bursts (Count)
system.mem_ctrl.dram.totQLat              15839309171                       # Total ticks spent queuing (Tick)
system.mem_ctrl.dram.totBusLat             6438045000                       # Total ticks spent in databus transfers (Tick)
system.mem_ctrl.dram.totMemAccLat         39981977921                       # Total ticks spent from burst creation until serviced by the DRAM (Tick)
system.mem_ctrl.dram.avgQLat                 12301.33                       # Average queueing delay per DRAM burst ((Tick/Count))
system.mem_ctrl.dram.avgBusLat                5000.00                       # Average bus latency per DRAM burst ((Tick/Count))
system.mem_ctrl.dram.avgMemAccLat            31051.33                       # Average memory access latency per DRAM burst ((Tick/Count))
system.mem_ctrl.dram.readRowHits               636284                       # Number of row buffer hits during reads (Count)
system.mem_ctrl.dram.writeRowHits               57392                       # Number of row buffer hits during writes (Count)
system.mem_ctrl.dram.readRowHitRate             49.42                       # Row buffer hit rate for reads (Ratio)
system.mem_ctrl.dram.writeRowHitRate            90.31                       # Row buffer hit rate for writes (Ratio)
system.mem_ctrl.dram.bytesPerActivate::samples       657482                       # Bytes accessed per row activation (Byte)
system.mem_ctrl.dram.bytesPerActivate::mean   131.523163                       # Bytes accessed per row activation (Byte)
system.mem_ctrl.dram.bytesPerActivate::gmean   105.466886                       # Bytes accessed per row activation (Byte)
system.mem_ctrl.dram.bytesPerActivate::stdev   115.333310                       # Bytes accessed per row activation (Byte)
system.mem_ctrl.dram.bytesPerActivate::0-127       344043     52.33%     52.33% # Bytes accessed per row activation (Byte)
system.mem_ctrl.dram.bytesPerActivate::128-255       228523     34.76%     87.08% # Bytes accessed per row activation (Byte)
system.mem_ctrl.dram.bytesPerActivate::256-383        59913      9.11%     96.20% # Bytes accessed per row activation (Byte)
system.mem_ctrl.dram.bytesPerActivate::384-511        14328      2.18%     98.38% # Bytes accessed per row activation (Byte)
system.mem_ctrl.dram.bytesPerActivate::512-639         3374      0.51%     98.89% # Bytes accessed per row activation (Byte)
system.mem_ctrl.dram.bytesPerActivate::640-767         2332      0.35%     99.24% # Bytes accessed per row activation (Byte)
system.mem_ctrl.dram.bytesPerActivate::768-895         1816      0.28%     99.52% # Bytes accessed per row activation (Byte)
system.mem_ctrl.dram.bytesPerActivate::896-1023          298      0.05%     99.57% # Bytes accessed per row activation (Byte)
system.mem_ctrl.dram.bytesPerActivate::1024-1151         2855      0.43%    100.00% # Bytes accessed per row activation (Byte)
[...]
system.mem_ctrl.dram.bwRead::cpu.data        14531912                       # Total read bandwidth from this memory ((Byte/Second))
system.mem_ctrl.dram.bwRead::total          112981738                       # Total read bandwidth from this memory ((Byte/Second))
system.mem_ctrl.dram.bwInstRead::cpu.inst     98449826                       # Instruction read bandwidth from this memory ((Byte/Second))
system.mem_ctrl.dram.bwInstRead::total       98449826                       # Instruction read bandwidth from this memory ((Byte/Second))
system.mem_ctrl.dram.bwWrite::writebacks      4473927                       # Write bandwidth from this memory ((Byte/Second))
system.mem_ctrl.dram.bwWrite::total           4473927                       # Write bandwidth from this memory ((Byte/Second))
system.mem_ctrl.dram.bwTotal::writebacks      4473927                       # Total bandwidth to/from this memory ((Byte/Second))
system.mem_ctrl.dram.bwTotal::cpu.inst       98449826                       # Total bandwidth to/from this memory ((Byte/Second))
system.mem_ctrl.dram.bwTotal::cpu.data       14531912                       # Total bandwidth to/from this memory ((Byte/Second))
system.mem_ctrl.dram.bwTotal::total         117455665                       # Total bandwidth to/from this memory ((Byte/Second))
system.mem_ctrl.dram.readBursts                890820                       # Number of DRAM read bursts (Count)
system.mem_ctrl.dram.writeBursts                21850                       # Number of DRAM write bursts (Count)
system.mem_ctrl.dram.perBankRdBursts::0         22327                       # Per bank write bursts (Count)
system.mem_ctrl.dram.perBankRdBursts::1        118960                       # Per bank write bursts (Count)
system.mem_ctrl.dram.perBankRdBursts::2          4297                       # Per bank write bursts (Count)
system.mem_ctrl.dram.perBankRdBursts::3          4244                       # Per bank write bursts (Count)
system.mem_ctrl.dram.perBankRdBursts::4          4554                       # Per bank write bursts (Count)
system.mem_ctrl.dram.perBankRdBursts::5          4107                       # Per bank write bursts (Count)
system.mem_ctrl.dram.perBankRdBursts::6          3746                       # Per bank write bursts (Count)
system.mem_ctrl.dram.perBankRdBursts::7          3548                       # Per bank write bursts (Count)
system.mem_ctrl.dram.perBankRdBursts::8        150119                       # Per bank write bursts (Count)
system.mem_ctrl.dram.perBankRdBursts::9        368222                       # Per bank write bursts (Count)
system.mem_ctrl.dram.perBankRdBursts::10       104183                       # Per bank write bursts (Count)
system.mem_ctrl.dram.perBankRdBursts::11        68466                       # Per bank write bursts (Count)
system.mem_ctrl.dram.perBankRdBursts::12        22639                       # Per bank write bursts (Count)
system.mem_ctrl.dram.perBankRdBursts::13         3095                       # Per bank write bursts (Count)
system.mem_ctrl.dram.perBankRdBursts::14         3072                       # Per bank write bursts (Count)
system.mem_ctrl.dram.perBankRdBursts::15         5241                       # Per bank write bursts (Count)
system.mem_ctrl.dram.perBankWrBursts::0          1553                       # Per bank write bursts (Count)
system.mem_ctrl.dram.perBankWrBursts::1          1511                       # Per bank write bursts (Count)
system.mem_ctrl.dram.perBankWrBursts::2          1487                       # Per bank write bursts (Count)
system.mem_ctrl.dram.perBankWrBursts::3          1500                       # Per bank write bursts (Count)
system.mem_ctrl.dram.perBankWrBursts::4          1387                       # Per bank write bursts (Count)
system.mem_ctrl.dram.perBankWrBursts::5          1295                       # Per bank write bursts (Count)
system.mem_ctrl.dram.perBankWrBursts::6          1240                       # Per bank write bursts (Count)
system.mem_ctrl.dram.perBankWrBursts::7          1303                       # Per bank write bursts (Count)
system.mem_ctrl.dram.perBankWrBursts::8          1113                       # Per bank write bursts (Count)
system.mem_ctrl.dram.perBankWrBursts::9          1022                       # Per bank write bursts (Count)
system.mem_ctrl.dram.perBankWrBursts::10         1172                       # Per bank write bursts (Count)
system.mem_ctrl.dram.perBankWrBursts::11         1127                       # Per bank write bursts (Count)
system.mem_ctrl.dram.perBankWrBursts::12         2028                       # Per bank write bursts (Count)
system.mem_ctrl.dram.perBankWrBursts::13         1389                       # Per bank write bursts (Count)
system.mem_ctrl.dram.perBankWrBursts::14         1241                       # Per bank write bursts (Count)
system.mem_ctrl.dram.perBankWrBursts::15         1482                       # Per bank write bursts (Count)
system.mem_ctrl.dram.totQLat               9758078575                       # Total ticks spent queuing (Tick)
system.mem_ctrl.dram.totBusLat             4454100000                       # Total ticks spent in databus transfers (Tick)
system.mem_ctrl.dram.totMemAccLat         26460953575                       # Total ticks spent from burst creation until serviced by the DRAM (Tick)
system.mem_ctrl.dram.avgQLat                 10954.04                       # Average queueing delay per DRAM burst ((Tick/Count))
system.mem_ctrl.dram.avgBusLat                5000.00                       # Average bus latency per DRAM burst ((Tick/Count))
system.mem_ctrl.dram.avgMemAccLat            29704.04                       # Average memory access latency per DRAM burst ((Tick/Count))
system.mem_ctrl.dram.readRowHits               573020                       # Number of row buffer hits during reads (Count)
system.mem_ctrl.dram.writeRowHits               19691                       # Number of row buffer hits during writes (Count)
system.mem_ctrl.dram.readRowHitRate             64.33                       # Row buffer hit rate for reads (Ratio)
system.mem_ctrl.dram.writeRowHitRate            90.12                       # Row buffer hit rate for writes (Ratio)
system.mem_ctrl.dram.bytesPerActivate::samples       319958                       # Bytes accessed per row activation (Byte)
system.mem_ctrl.dram.bytesPerActivate::mean   182.558161                       # Bytes accessed per row activation (Byte)
system.mem_ctrl.dram.bytesPerActivate::gmean   136.589886                       # Bytes accessed per row activation (Byte)
system.mem_ctrl.dram.bytesPerActivate::stdev   153.964237                       # Bytes accessed per row activation (Byte)
system.mem_ctrl.dram.bytesPerActivate::0-127       130601     40.82%     40.82% # Bytes accessed per row activation (Byte)
system.mem_ctrl.dram.bytesPerActivate::128-255       103948     32.49%     73.31% # Bytes accessed per row activation (Byte)
system.mem_ctrl.dram.bytesPerActivate::256-383        45940     14.36%     87.66% # Bytes accessed per row activation (Byte)
system.mem_ctrl.dram.bytesPerActivate::384-511        17593      5.50%     93.16% # Bytes accessed per row activation (Byte)
system.mem_ctrl.dram.bytesPerActivate::512-639        17233      5.39%     98.55% # Bytes accessed per row activation (Byte)
system.mem_ctrl.dram.bytesPerActivate::640-767         2946      0.92%     99.47% # Bytes accessed per row activation (Byte)
system.mem_ctrl.dram.bytesPerActivate::768-895          197      0.06%     99.53% # Bytes accessed per row activation (Byte)
system.mem_ctrl.dram.bytesPerActivate::896-1023          211      0.07%     99.60% # Bytes accessed per row activation (Byte)
system.mem_ctrl.dram.bytesPerActivate::1024-1151         1289      0.40%    100.00% # Bytes accessed per row activation (Byte)
system.mem_ctrl.dram.bytesPerActivate::total       319958                       # Bytes accessed per row activation (Byte)
system.mem_ctrl.dram.dramBytesRead           57012480                       # Total bytes read (Byte)
system.mem_ctrl.dram.dramBytesWritten         1398400                       # Total bytes written (Byte)
system.mem_ctrl.dram.avgRdBW               111.028072                       # Average DRAM read bandwidth in MiBytes/s ((Byte/Second))
system.mem_ctrl.dram.avgWrBW                 2.723292                       # Average DRAM write bandwidth in MiBytes/s ((Byte/Second))
system.mem_ctrl.dram.peakBW                  12800.00                       # Theoretical peak bandwidth in MiByte/s ((Byte/Second))
system.mem_ctrl.dram.busUtil                     0.89                       # Data bus utilization in percentage (Ratio)
system.mem_ctrl.dram.busUtilRead                 0.87                       # Data bus utilization in percentage for reads (Ratio)
system.mem_ctrl.dram.busUtilWrite                0.02                       # Data bus utilization in percentage for writes (Ratio)
system.mem_ctrl.dram.pageHitRate                64.94                       # Row buffer hit rate, read and write combined (Ratio)
system.mem_ctrl.dram.power_state.pwrStateResidencyTicks::UNDEFINED 513496082277                       # Cumulative time (in ticks) in various power states (Tick)
system.mem_ctrl.dram.rank0.actEnergy        655166400                       # Energy for activate commands per rank (pJ) (Joule)
system.mem_ctrl.dram.rank0.preEnergy        348225405                       # Energy for precharge commands per rank (pJ) (Joule)
system.mem_ctrl.dram.rank0.readEnergy      1183690620                       # Energy for read commands per rank (pJ) (Joule)
system.mem_ctrl.dram.rank0.writeEnergy       58860720                       # Energy for write commands per rank (pJ) (Joule)
system.mem_ctrl.dram.rank0.refreshEnergy 40534893360.000008                       # Energy for refresh commands per rank (pJ) (Joule)
system.mem_ctrl.dram.rank0.actBackEnergy 148843099080                       # Energy for active background per rank (pJ) (Joule)
system.mem_ctrl.dram.rank0.preBackEnergy  71840938560                       # Energy for precharge background per rank (pJ) (Joule)
system.mem_ctrl.dram.rank0.actPowerDownEnergy            0                       # Energy for active power-down per rank (pJ) (Joule)
system.mem_ctrl.dram.rank0.prePowerDownEnergy            0                       # Energy for precharge power-down per rank (pJ) (Joule)
system.mem_ctrl.dram.rank0.selfRefreshEnergy            0                       # Energy for self refresh per rank (pJ) (Joule)
system.mem_ctrl.dram.rank0.totalEnergy   263464874145                       # Total energy per rank (pJ) (Joule)
system.mem_ctrl.dram.rank0.averagePower    513.080593                       # Core power per rank (mW) (Watt)
system.mem_ctrl.dram.rank0.totalIdleTime            0                       # Total Idle time Per DRAM Rank (Tick)
system.mem_ctrl.dram.rank0.pwrStateTime::IDLE 185159992526                       # Time in different power states (Tick)
system.mem_ctrl.dram.rank0.pwrStateTime::REF  17146740000                       # Time in different power states (Tick)
system.mem_ctrl.dram.rank0.pwrStateTime::SREF            0                       # Time in different power states (Tick)
system.mem_ctrl.dram.rank0.pwrStateTime::PRE_PDN            0                       # Time in different power states (Tick)
system.mem_ctrl.dram.rank0.pwrStateTime::ACT 311189349751                       # Time in different power states (Tick)
system.mem_ctrl.dram.rank0.pwrStateTime::ACT_PDN            0                       # Time in different power states (Tick)
system.mem_ctrl.dram.rank1.actEnergy       1629340860                       # Energy for activate commands per rank (pJ) (Joule)
system.mem_ctrl.dram.rank1.preEnergy        866015205                       # Energy for precharge commands per rank (pJ) (Joule)
system.mem_ctrl.dram.rank1.readEnergy      5176764180                       # Energy for read commands per rank (pJ) (Joule)
system.mem_ctrl.dram.rank1.writeEnergy       55196280                       # Energy for write commands per rank (pJ) (Joule)
system.mem_ctrl.dram.rank1.refreshEnergy 40534893360.000008                       # Energy for refresh commands per rank (pJ) (Joule)
system.mem_ctrl.dram.rank1.actBackEnergy 208423198950                       # Energy for active background per rank (pJ) (Joule)
system.mem_ctrl.dram.rank1.preBackEnergy  21668222880                       # Energy for precharge background per rank (pJ) (Joule)
system.mem_ctrl.dram.rank1.actPowerDownEnergy            0                       # Energy for active power-down per rank (pJ) (Joule)
system.mem_ctrl.dram.rank1.prePowerDownEnergy            0                       # Energy for precharge power-down per rank (pJ) (Joule)
system.mem_ctrl.dram.rank1.selfRefreshEnergy            0                       # Energy for self refresh per rank (pJ) (Joule)
system.mem_ctrl.dram.rank1.totalEnergy   278353631715                       # Total energy per rank (pJ) (Joule)
system.mem_ctrl.dram.rank1.averagePower    542.075473                       # Core power per rank (mW) (Watt)
system.mem_ctrl.dram.rank1.totalIdleTime            0                       # Total Idle time Per DRAM Rank (Tick)
system.mem_ctrl.dram.rank1.pwrStateTime::IDLE  54204240273                       # Time in different power states (Tick)
system.mem_ctrl.dram.rank1.pwrStateTime::REF  17146740000                       # Time in different power states (Tick)
system.mem_ctrl.dram.rank1.pwrStateTime::SREF            0                       # Time in different power states (Tick)
system.mem_ctrl.dram.rank1.pwrStateTime::PRE_PDN            0                       # Time in different power states (Tick)
system.mem_ctrl.dram.rank1.pwrStateTime::ACT 442145102004                       # Time in different power states (Tick)
system.mem_ctrl.dram.rank1.pwrStateTime::ACT_PDN            0                       # Time in different power states (Tick)
system.mem_ctrl.power_state.pwrStateResidencyTicks::UNDEFINED 513496082277                       # Cumulative time (in ticks) in various power states (Tick)
system.membus.transDist::ReadResp              872215                       # Transaction distribution (Count)
system.membus.transDist::WritebackDirty         35896                       # Transaction distribution (Count)
system.membus.transDist::CleanEvict            870599                       # Transaction distribution (Count)
system.membus.transDist::ReadExReq              34280                       # Transaction distribution (Count)
system.membus.transDist::ReadExResp             34280                       # Transaction distribution (Count)
system.membus.transDist::ReadSharedReq         872215                       # Transaction distribution (Count)
system.membus.pktCount_system.cpu.l1d.mem_side_port::system.mem_ctrl.port       349785                       # Packet count per connected requestor and responder (Count)
system.membus.pktCount_system.cpu.l1d.mem_side_port::total       349785                       # Packet count per connected requestor and responder (Count)
system.membus.pktCount_system.cpu.l1i.mem_side_port::system.mem_ctrl.port      2369700                       # Packet count per connected requestor and responder (Count)
system.membus.pktCount_system.cpu.l1i.mem_side_port::total      2369700                       # Packet count per connected requestor and responder (Count)
system.membus.pktCount::total                 2719485                       # Packet count per connected requestor and responder (Count)
system.membus.pktSize_system.cpu.l1d.mem_side_port::system.mem_ctrl.port      9759424                       # Cumulative packet size per connected requestor and responder (Byte)
system.membus.pktSize_system.cpu.l1d.mem_side_port::total      9759424                       # Cumulative packet size per connected requestor and responder (Byte)
system.membus.pktSize_system.cpu.l1i.mem_side_port::system.mem_ctrl.port     50553600                       # Cumulative packet size per connected requestor and responder (Byte)
system.membus.pktSize_system.cpu.l1i.mem_side_port::total     50553600                       # Cumulative packet size per connected requestor and responder (Byte)
system.membus.pktSize::total                 60313024                       # Cumulative packet size per connected requestor and responder (Byte)
system.membus.snoops                                0                       # Total snoops (Count)
system.membus.snoopTraffic                          0                       # Total snoop traffic (Byte)
system.membus.snoopFanout::samples             906495                       # Request fanout histogram (Count)
system.membus.snoopFanout::mean                     0                       # Request fanout histogram (Count)
system.membus.snoopFanout::stdev                    0                       # Request fanout histogram (Count)
system.membus.snoopFanout::underflows               0      0.00%      0.00% # Request fanout histogram (Count)
system.membus.snoopFanout::0                   906495    100.00%    100.00% # Request fanout histogram (Count)
system.membus.snoopFanout::1                        0      0.00%    100.00% # Request fanout histogram (Count)
system.membus.snoopFanout::2                        0      0.00%    100.00% # Request fanout histogram (Count)
system.membus.snoopFanout::overflows                0      0.00%    100.00% # Request fanout histogram (Count)
system.membus.snoopFanout::min_value                0                       # Request fanout histogram (Count)
system.membus.snoopFanout::max_value                0                       # Request fanout histogram (Count)
system.membus.snoopFanout::total               906495                       # Request fanout histogram (Count)
system.membus.power_state.pwrStateResidencyTicks::UNDEFINED 513496082277                       # Cumulative time (in ticks) in various power states (Tick)
system.membus.reqLayer2.occupancy         26087001142                       # Layer occupancy (ticks) (Tick)
system.membus.reqLayer2.utilization               0.1                       # Layer utilization (Ratio)
system.membus.respLayer2.occupancy         7939988700                       # Layer occupancy (ticks) (Tick)
system.membus.respLayer2.utilization              0.0                       # Layer utilization (Ratio)
system.membus.respLayer3.occupancy        53678723005                       # Layer occupancy (ticks) (Tick)
system.membus.respLayer3.utilization              0.1                       # Layer utilization (Ratio)
system.membus.snoop_filter.totRequests        1812990                       # Total number of requests made to the snoop filter. (Count)
system.membus.snoop_filter.hitSingleRequests       906495                       # Number of requests hitting in the snoop filter with a single holder of the requested data. (Count)
system.membus.snoop_filter.hitMultiRequests            0                       # Number of requests hitting in the snoop filter with multiple (>1) holders of the requested data. (Count)
system.membus.snoop_filter.totSnoops                0                       # Total number of snoops made to the snoop filter. (Count)
system.membus.snoop_filter.hitSingleSnoops            0                       # Number of snoops hitting in the snoop filter with a single holder of the requested data. (Count)
system.membus.snoop_filter.hitMultiSnoops            0                       # Number of snoops hitting in the snoop filter with multiple (>1) holders of the requested data. (Count)
system.workload.inst.arm                            0                       # number of arm instructions executed (Count)
system.workload.inst.quiesce                        0                       # number of quiesce instructions executed (Count)

---------- End Simulation Statistics   ----------
