
---------- Begin Simulation Statistics ----------
simSeconds                                   1.624456                       # Number of seconds simulated (Second)
simTicks                                 1624456160914                       # Number of ticks simulated (Tick)
finalTick                                1624456160914                       # Number of ticks from beginning of simulation (restored from checkpoints and never reset) (Tick)
simFreq                                  1000000000000                       # The number of ticks per simulated second ((Tick/Second))
hostSeconds                                    797.80                       # Real time elapsed on the host (Second)
hostTickRate                               2036171937                       # The number of ticks simulated per host second (ticks/s) ((Tick/Second))
hostMemory                                    8639768                       # Number of bytes of host memory used (Byte)
simInsts                                    207772930                       # Number of instructions simulated (Count)
simOps                                      340008181                       # Number of ops (including micro ops) simulated (Count)
hostInstRate                                   260433                       # Simulator instruction rate (inst/s) ((Count/Second))
hostOpRate                                     426183                       # Simulator op (including micro ops) rate (op/s) ((Count/Second))
system.clk_domain.clock                         13333                       # Clock period in ticks (Tick)
system.clk_domain.voltage_domain.voltage            1                       # Voltage in Volts (Volt)
system.cpu.numCycles                        121837259                       # Number of cpu cycles simulated (Cycle)
system.cpu.cpi                               0.586396                       # CPI: cycles per instruction (core level) ((Cycle/Count))
system.cpu.ipc                               1.705332                       # IPC: instructions per cycle (core level) ((Count/Cycle))
system.cpu.numWorkItemsStarted                      0                       # Number of work items this cpu started (Count)
system.cpu.numWorkItemsCompleted                    0                       # Number of work items this cpu completed (Count)
system.cpu.instsAdded                       447229928                       # Number of instructions added to the IQ (excludes non-spec) (Count)
system.cpu.nonSpecInstsAdded                     2932                       # Number of non-speculative instructions added to the IQ (Count)
system.cpu.instsIssued                      415672418                       # Number of instructions issued (Count)
system.cpu.squashedInstsIssued                1040427                       # Number of squashed instructions issued (Count)
system.cpu.squashedInstsExamined            107224668                       # Number of squashed instructions iterated over during squash; mainly for profiling (Count)
system.cpu.squashedOperandsExamined         133093745                       # Number of squashed operands that are examined and possibly removed from graph (Count)
system.cpu.squashedNonSpecRemoved                 310                       # Number of squashed non-spec instructions that were removed (Count)
system.cpu.numIssuedDist::samples           121630953                       # Number of insts issued each cycle (Count)
system.cpu.numIssuedDist::mean               3.417489                       # Number of insts issued each cycle (Count)
system.cpu.numIssuedDist::stdev              2.883281                       # Number of insts issued each cycle (Count)
system.cpu.numIssuedDist::underflows                0      0.00%      0.00% # Number of insts issued each cycle (Count)
system.cpu.numIssuedDist::0                  37004702     30.42%     30.42% # Number of insts issued each cycle (Count)
system.cpu.numIssuedDist::1                   6489935      5.34%     35.76% # Number of insts issued each cycle (Count)
system.cpu.numIssuedDist::2                   8598287      7.07%     42.83% # Number of insts issued each cycle (Count)
system.cpu.numIssuedDist::3                   9647470      7.93%     50.76% # Number of insts issued each cycle (Count)
system.cpu.numIssuedDist::4                   9403566      7.73%     58.49% # Number of insts issued each cycle (Count)
system.cpu.numIssuedDist::5                  10825674      8.90%     67.39% # Number of insts issued each cycle (Count)
system.cpu.numIssuedDist::6                  17211713     14.15%     81.54% # Number of insts issued each cycle (Count)
system.cpu.numIssuedDist::7                  11566261      9.51%     91.05% # Number of insts issued each cycle (Count)
system.cpu.numIssuedDist::8                  10883345      8.95%    100.00% # Number of insts issued each cycle (Count)
system.cpu.numIssuedDist::overflows                 0      0.00%    100.00% # Number of insts issued each cycle (Count)
system.cpu.numIssuedDist::min_value                 0                       # Number of insts issued each cycle (Count)
system.cpu.numIssuedDist::max_value                 8                       # Number of insts issued each cycle (Count)
system.cpu.numIssuedDist::total             121630953                       # Number of insts issued each cycle (Count)
system.cpu.statFuBusy::No_OpClass                   0      0.00%      0.00% # attempts to use FU when none available (Count)
system.cpu.statFuBusy::IntAlu                12539295     93.09%     93.09% # attempts to use FU when none available (Count)
system.cpu.statFuBusy::IntMult                      0      0.00%     93.09% # attempts to use FU when none available (Count)
system.cpu.statFuBusy::IntDiv                       0      0.00%     93.09% # attempts to use FU when none available (Count)
system.cpu.statFuBusy::FloatAdd                     0      0.00%     93.09% # attempts to use FU when none available (Count)
system.cpu.statFuBusy::FloatCmp                     0      0.00%     93.09% # attempts to use FU when none available (Count)
system.cpu.statFuBusy::FloatCvt                     0      0.00%     93.09% # attempts to use FU when none available (Count)
system.cpu.statFuBusy::FloatMult                    0      0.00%     93.09% # attempts to use FU when none available (Count)
system.cpu.statFuBusy::FloatMultAcc                 0      0.00%     93.09% # attempts to use FU when none available (Count)
system.cpu.statFuBusy::FloatDiv                     0      0.00%     93.09% # attempts to use FU when none available (Count)
system.cpu.statFuBusy::FloatMisc                    0      0.00%     93.09% # attempts to use FU when none available (Count)
system.cpu.statFuBusy::FloatSqrt                    0      0.00%     93.09% # attempts to use FU when none available (Count)
system.cpu.statFuBusy::SimdAdd                      1      0.00%     93.09% # attempts to use FU when none available (Count)
system.cpu.statFuBusy::SimdAddAcc                   0      0.00%     93.09% # attempts to use FU when none available (Count)
system.cpu.statFuBusy::SimdAlu                  30429      0.23%     93.32% # attempts to use FU when none available (Count)
system.cpu.statFuBusy::SimdCmp                      2      0.00%     93.32% # attempts to use FU when none available (Count)
system.cpu.statFuBusy::SimdCvt                    150      0.00%     93.32% # attempts to use FU when none available (Count)
system.cpu.statFuBusy::SimdMisc                    19      0.00%     93.32% # attempts to use FU when none available (Count)
system.cpu.statFuBusy::SimdMult                     0      0.00%     93.32% # attempts to use FU when none available (Count)
system.cpu.statFuBusy::SimdMultAcc                  0      0.00%     93.32% # attempts to use FU when none available (Count)
system.cpu.statFuBusy::SimdMatMultAcc               0      0.00%     93.32% # attempts to use FU when none available (Count)
system.cpu.statFuBusy::SimdShift                   16      0.00%     93.32% # attempts to use FU when none available (Count)
system.cpu.statFuBusy::SimdShiftAcc                 0      0.00%     93.32% # attempts to use FU when none available (Count)
system.cpu.statFuBusy::SimdDiv                      0      0.00%     93.32% # attempts to use FU when none available (Count)
system.cpu.statFuBusy::SimdSqrt                     0      0.00%     93.32% # attempts to use FU when none available (Count)
system.cpu.statFuBusy::SimdFloatAdd            555712      4.13%     97.45% # attempts to use FU when none available (Count)
system.cpu.statFuBusy::SimdFloatAlu                 0      0.00%     97.45% # attempts to use FU when none available (Count)
system.cpu.statFuBusy::SimdFloatCmp                 0      0.00%     97.45% # attempts to use FU when none available (Count)
system.cpu.statFuBusy::SimdFloatCvt                31      0.00%     97.45% # attempts to use FU when none available (Count)
system.cpu.statFuBusy::SimdFloatDiv                 0      0.00%     97.45% # attempts to use FU when none available (Count)
system.cpu.statFuBusy::SimdFloatMisc                0      0.00%     97.45% # attempts to use FU when none available (Count)
system.cpu.statFuBusy::SimdFloatMult           279987      2.08%     99.53% # attempts to use FU when none available (Count)
system.cpu.statFuBusy::SimdFloatMultAcc             0      0.00%     99.53% # attempts to use FU when none available (Count)
system.cpu.statFuBusy::SimdFloatMatMultAcc            0      0.00%     99.53% # attempts to use FU when none available (Count)
system.cpu.statFuBusy::SimdFloatSqrt                0      0.00%     99.53% # attempts to use FU when none available (Count)
system.cpu.statFuBusy::SimdReduceAdd                0      0.00%     99.53% # attempts to use FU when none available (Count)
system.cpu.statFuBusy::SimdReduceAlu                0      0.00%     99.53% # attempts to use FU when none available (Count)
system.cpu.statFuBusy::SimdReduceCmp                0      0.00%     99.53% # attempts to use FU when none available (Count)
system.cpu.statFuBusy::SimdFloatReduceAdd            0      0.00%     99.53% # attempts to use FU when none available (Count)
system.cpu.statFuBusy::SimdFloatReduceCmp            0      0.00%     99.53% # attempts to use FU when none available (Count)
system.cpu.statFuBusy::SimdAes                      0      0.00%     99.53% # attempts to use FU when none available (Count)
system.cpu.statFuBusy::SimdAesMix                   0      0.00%     99.53% # attempts to use FU when none available (Count)
system.cpu.statFuBusy::SimdSha1Hash                 0      0.00%     99.53% # attempts to use FU when none available (Count)
system.cpu.statFuBusy::SimdSha1Hash2                0      0.00%     99.53% # attempts to use FU when none available (Count)
system.cpu.statFuBusy::SimdSha256Hash               0      0.00%     99.53% # attempts to use FU when none available (Count)
system.cpu.statFuBusy::SimdSha256Hash2              0      0.00%     99.53% # attempts to use FU when none available (Count)
system.cpu.statFuBusy::SimdShaSigma2                0      0.00%     99.53% # attempts to use FU when none available (Count)
system.cpu.statFuBusy::SimdShaSigma3                0      0.00%     99.53% # attempts to use FU when none available (Count)
system.cpu.statFuBusy::SimdPredAlu                  0      0.00%     99.53% # attempts to use FU when none available (Count)
system.cpu.statFuBusy::Matrix                       0      0.00%     99.53% # attempts to use FU when none available (Count)
system.cpu.statFuBusy::MatrixMov                    0      0.00%     99.53% # attempts to use FU when none available (Count)
system.cpu.statFuBusy::MatrixOP                     0      0.00%     99.53% # attempts to use FU when none available (Count)
system.cpu.statFuBusy::MemRead                  18410      0.14%     99.66% # attempts to use FU when none available (Count)
system.cpu.statFuBusy::MemWrite                 43105      0.32%     99.98% # attempts to use FU when none available (Count)
system.cpu.statFuBusy::FloatMemRead               855      0.01%     99.99% # attempts to use FU when none available (Count)
system.cpu.statFuBusy::FloatMemWrite             1411      0.01%    100.00% # attempts to use FU when none available (Count)
system.cpu.statFuBusy::IprAccess                    0      0.00%    100.00% # attempts to use FU when none available (Count)
system.cpu.statFuBusy::InstPrefetch                 0      0.00%    100.00% # attempts to use FU when none available (Count)
system.cpu.statFuBusy::SimdUnitStrideLoad            0      0.00%    100.00% # attempts to use FU when none available (Count)
system.cpu.statFuBusy::SimdUnitStrideStore            0      0.00%    100.00% # attempts to use FU when none available (Count)
system.cpu.statFuBusy::SimdUnitStrideMaskLoad            0      0.00%    100.00% # attempts to use FU when none available (Count)
system.cpu.statFuBusy::SimdUnitStrideMaskStore            0      0.00%    100.00% # attempts to use FU when none available (Count)
system.cpu.statFuBusy::SimdStridedLoad              0      0.00%    100.00% # attempts to use FU when none available (Count)
system.cpu.statFuBusy::SimdStridedStore             0      0.00%    100.00% # attempts to use FU when none available (Count)
system.cpu.statFuBusy::SimdIndexedLoad              0      0.00%    100.00% # attempts to use FU when none available (Count)
system.cpu.statFuBusy::SimdIndexedStore             0      0.00%    100.00% # attempts to use FU when none available (Count)
system.cpu.statFuBusy::SimdWholeRegisterLoad            0      0.00%    100.00% # attempts to use FU when none available (Count)
system.cpu.statFuBusy::SimdWholeRegisterStore            0      0.00%    100.00% # attempts to use FU when none available (Count)
system.cpu.statFuBusy::SimdUnitStrideFaultOnlyFirstLoad            0      0.00%    100.00% # attempts to use FU when none available (Count)
system.cpu.statFuBusy::SimdUnitStrideSegmentedLoad            0      0.00%    100.00% # attempts to use FU when none available (Count)
system.cpu.statFuBusy::SimdUnitStrideSegmentedStore            0      0.00%    100.00% # attempts to use FU when none available (Count)
system.cpu.statFuBusy::SimdExt                      0      0.00%    100.00% # attempts to use FU when none available (Count)
system.cpu.statFuBusy::SimdFloatExt                 0      0.00%    100.00% # attempts to use FU when none available (Count)
system.cpu.statFuBusy::SimdConfig                   0      0.00%    100.00% # attempts to use FU when none available (Count)
system.cpu.statIssuedInstType_0::No_OpClass       714567      0.17%      0.17% # Number of instructions issued per FU type, per thread (Count)
system.cpu.statIssuedInstType_0::IntAlu     294933187     70.95%     71.13% # Number of instructions issued per FU type, per thread (Count)
system.cpu.statIssuedInstType_0::IntMult       104498      0.03%     71.15% # Number of instructions issued per FU type, per thread (Count)
system.cpu.statIssuedInstType_0::IntDiv       1303159      0.31%     71.46% # Number of instructions issued per FU type, per thread (Count)
system.cpu.statIssuedInstType_0::FloatAdd     15447038      3.72%     75.18% # Number of instructions issued per FU type, per thread (Count)
system.cpu.statIssuedInstType_0::FloatCmp            0      0.00%     75.18% # Number of instructions issued per FU type, per thread (Count)
system.cpu.statIssuedInstType_0::FloatCvt         1689      0.00%     75.18% # Number of instructions issued per FU type, per thread (Count)
system.cpu.statIssuedInstType_0::FloatMult            0      0.00%     75.18% # Number of instructions issued per FU type, per thread (Count)
system.cpu.statIssuedInstType_0::FloatMultAcc            0      0.00%     75.18% # Number of instructions issued per FU type, per thread (Count)
system.cpu.statIssuedInstType_0::FloatDiv            0      0.00%     75.18% # Number of instructions issued per FU type, per thread (Count)
system.cpu.statIssuedInstType_0::FloatMisc            0      0.00%     75.18% # Number of instructions issued per FU type, per thread (Count)
system.cpu.statIssuedInstType_0::FloatSqrt            0      0.00%     75.18% # Number of instructions issued per FU type, per thread (Count)
system.cpu.statIssuedInstType_0::SimdAdd      1400489      0.34%     75.52% # Number of instructions issued per FU type, per thread (Count)
system.cpu.statIssuedInstType_0::SimdAddAcc            0      0.00%     75.52% # Number of instructions issued per FU type, per thread (Count)
system.cpu.statIssuedInstType_0::SimdAlu       281805      0.07%     75.59% # Number of instructions issued per FU type, per thread (Count)
system.cpu.statIssuedInstType_0::SimdCmp           16      0.00%     75.59% # Number of instructions issued per FU type, per thread (Count)
system.cpu.statIssuedInstType_0::SimdCvt        80974      0.02%     75.60% # Number of instructions issued per FU type, per thread (Count)
system.cpu.statIssuedInstType_0::SimdMisc       810320      0.19%     75.80% # Number of instructions issued per FU type, per thread (Count)
system.cpu.statIssuedInstType_0::SimdMult            0      0.00%     75.80% # Number of instructions issued per FU type, per thread (Count)
system.cpu.statIssuedInstType_0::SimdMultAcc            0      0.00%     75.80% # Number of instructions issued per FU type, per thread (Count)
system.cpu.statIssuedInstType_0::SimdMatMultAcc            0      0.00%     75.80% # Number of instructions issued per FU type, per thread (Count)
system.cpu.statIssuedInstType_0::SimdShift         3111      0.00%     75.80% # Number of instructions issued per FU type, per thread (Count)
system.cpu.statIssuedInstType_0::SimdShiftAcc            0      0.00%     75.80% # Number of instructions issued per FU type, per thread (Count)
system.cpu.statIssuedInstType_0::SimdDiv            0      0.00%     75.80% # Number of instructions issued per FU type, per thread (Count)
system.cpu.statIssuedInstType_0::SimdSqrt            0      0.00%     75.80% # Number of instructions issued per FU type, per thread (Count)
system.cpu.statIssuedInstType_0::SimdFloatAdd     29361776      7.06%     82.86% # Number of instructions issued per FU type, per thread (Count)
system.cpu.statIssuedInstType_0::SimdFloatAlu            0      0.00%     82.86% # Number of instructions issued per FU type, per thread (Count)
system.cpu.statIssuedInstType_0::SimdFloatCmp      1667530      0.40%     83.27% # Number of instructions issued per FU type, per thread (Count)
system.cpu.statIssuedInstType_0::SimdFloatCvt     11577670      2.79%     86.05% # Number of instructions issued per FU type, per thread (Count)
system.cpu.statIssuedInstType_0::SimdFloatDiv          166      0.00%     86.05% # Number of instructions issued per FU type, per thread (Count)
system.cpu.statIssuedInstType_0::SimdFloatMisc            0      0.00%     86.05% # Number of instructions issued per FU type, per thread (Count)
system.cpu.statIssuedInstType_0::SimdFloatMult     17182344      4.13%     90.18% # Number of instructions issued per FU type, per thread (Count)
system.cpu.statIssuedInstType_0::SimdFloatMultAcc            0      0.00%     90.18% # Number of instructions issued per FU type, per thread (Count)
system.cpu.statIssuedInstType_0::SimdFloatMatMultAcc            0      0.00%     90.18% # Number of instructions issued per FU type, per thread (Count)
system.cpu.statIssuedInstType_0::SimdFloatSqrt            0      0.00%     90.18% # Number of instructions issued per FU type, per thread (Count)
system.cpu.statIssuedInstType_0::SimdReduceAdd            0      0.00%     90.18% # Number of instructions issued per FU type, per thread (Count)
system.cpu.statIssuedInstType_0::SimdReduceAlu            0      0.00%     90.18% # Number of instructions issued per FU type, per thread (Count)
system.cpu.statIssuedInstType_0::SimdReduceCmp            0      0.00%     90.18% # Number of instructions issued per FU type, per thread (Count)
system.cpu.statIssuedInstType_0::SimdFloatReduceAdd            0      0.00%     90.18% # Number of instructions issued per FU type, per thread (Count)
system.cpu.statIssuedInstType_0::SimdFloatReduceCmp            0      0.00%     90.18% # Number of instructions issued per FU type, per thread (Count)
system.cpu.statIssuedInstType_0::SimdAes            0      0.00%     90.18% # Number of instructions issued per FU type, per thread (Count)
system.cpu.statIssuedInstType_0::SimdAesMix            0      0.00%     90.18% # Number of instructions issued per FU type, per thread (Count)
system.cpu.statIssuedInstType_0::SimdSha1Hash            0      0.00%     90.18% # Number of instructions issued per FU type, per thread (Count)
system.cpu.statIssuedInstType_0::SimdSha1Hash2            0      0.00%     90.18% # Number of instructions issued per FU type, per thread (Count)
system.cpu.statIssuedInstType_0::SimdSha256Hash            0      0.00%     90.18% # Number of instructions issued per FU type, per thread (Count)
system.cpu.statIssuedInstType_0::SimdSha256Hash2            0      0.00%     90.18% # Number of instructions issued per FU type, per thread (Count)
system.cpu.statIssuedInstType_0::SimdShaSigma2            0      0.00%     90.18% # Number of instructions issued per FU type, per thread (Count)
system.cpu.statIssuedInstType_0::SimdShaSigma3            0      0.00%     90.18% # Number of instructions issued per FU type, per thread (Count)
system.cpu.statIssuedInstType_0::SimdPredAlu            0      0.00%     90.18% # Number of instructions issued per FU type, per thread (Count)
system.cpu.statIssuedInstType_0::Matrix             0      0.00%     90.18% # Number of instructions issued per FU type, per thread (Count)
system.cpu.statIssuedInstType_0::MatrixMov            0      0.00%     90.18% # Number of instructions issued per FU type, per thread (Count)
system.cpu.statIssuedInstType_0::MatrixOP            0      0.00%     90.18% # Number of instructions issued per FU type, per thread (Count)
system.cpu.statIssuedInstType_0::MemRead     18829026      4.53%     94.71% # Number of instructions issued per FU type, per thread (Count)
system.cpu.statIssuedInstType_0::MemWrite      7016712      1.69%     96.40% # Number of instructions issued per FU type, per thread (Count)
system.cpu.statIssuedInstType_0::FloatMemRead     14092852      3.39%     99.79% # Number of instructions issued per FU type, per thread (Count)
system.cpu.statIssuedInstType_0::FloatMemWrite       863489      0.21%    100.00% # Number of instructions issued per FU type, per thread (Count)
system.cpu.statIssuedInstType_0::IprAccess            0      0.00%    100.00% # Number of instructions issued per FU type, per thread (Count)
system.cpu.statIssuedInstType_0::InstPrefetch            0      0.00%    100.00% # Number of instructions issued per FU type, per thread (Count)
system.cpu.statIssuedInstType_0::SimdUnitStrideLoad            0      0.00%    100.00% # Number of instructions issued per FU type, per thread (Count)
system.cpu.statIssuedInstType_0::SimdUnitStrideStore            0      0.00%    100.00% # Number of instructions issued per FU type, per thread (Count)
system.cpu.statIssuedInstType_0::SimdUnitStrideMaskLoad            0      0.00%    100.00% # Number of instructions issued per FU type, per thread (Count)
system.cpu.statIssuedInstType_0::SimdUnitStrideMaskStore            0      0.00%    100.00% # Number of instructions issued per FU type, per thread (Count)
system.cpu.statIssuedInstType_0::SimdStridedLoad            0      0.00%    100.00% # Number of instructions issued per FU type, per thread (Count)
system.cpu.statIssuedInstType_0::SimdStridedStore            0      0.00%    100.00% # Number of instructions issued per FU type, per thread (Count)
system.cpu.statIssuedInstType_0::SimdIndexedLoad            0      0.00%    100.00% # Number of instructions issued per FU type, per thread (Count)
system.cpu.statIssuedInstType_0::SimdIndexedStore            0      0.00%    100.00% # Number of instructions issued per FU type, per thread (Count)
system.cpu.statIssuedInstType_0::SimdWholeRegisterLoad            0      0.00%    100.00% # Number of instructions issued per FU type, per thread (Count)
system.cpu.statIssuedInstType_0::SimdWholeRegisterStore            0      0.00%    100.00% # Number of instructions issued per FU type, per thread (Count)
system.cpu.statIssuedInstType_0::SimdUnitStrideFaultOnlyFirstLoad            0      0.00%    100.00% # Number of instructions issued per FU type, per thread (Count)
system.cpu.statIssuedInstType_0::SimdUnitStrideSegmentedLoad            0      0.00%    100.00% # Number of instructions issued per FU type, per thread (Count)
system.cpu.statIssuedInstType_0::SimdUnitStrideSegmentedStore            0      0.00%    100.00% # Number of instructions issued per FU type, per thread (Count)
system.cpu.statIssuedInstType_0::SimdExt            0      0.00%    100.00% # Number of instructions issued per FU type, per thread (Count)
system.cpu.statIssuedInstType_0::SimdFloatExt            0      0.00%    100.00% # Number of instructions issued per FU type, per thread (Count)
system.cpu.statIssuedInstType_0::SimdConfig            0      0.00%    100.00% # Number of instructions issued per FU type, per thread (Count)
system.cpu.statIssuedInstType_0::total      415672418                       # Number of instructions issued per FU type, per thread (Count)
system.cpu.issueRate                         3.411702                       # Inst issue rate ((Count/Cycle))
system.cpu.fuBusy                            13469423                       # FU busy when requested (Count)
system.cpu.fuBusyRate                        0.032404                       # FU busy rate (busy events/executed inst) ((Count/Count))
system.cpu.intInstQueueReads                719841009                       # Number of integer instruction queue reads (Count)
system.cpu.intInstQueueWrites               364339893                       # Number of integer instruction queue writes (Count)
system.cpu.intInstQueueWakeupAccesses       290137268                       # Number of integer instruction queue wakeup accesses (Count)
system.cpu.fpInstQueueReads                 247644630                       # Number of floating instruction queue reads (Count)
system.cpu.fpInstQueueWrites                190118212                       # Number of floating instruction queue writes (Count)
system.cpu.fpInstQueueWakeupAccesses        121769242                       # Number of floating instruction queue wakeup accesses (Count)
system.cpu.vecInstQueueReads                        0                       # Number of vector instruction queue reads (Count)
system.cpu.vecInstQueueWrites                       0                       # Number of vector instruction queue writes (Count)
system.cpu.vecInstQueueWakeupAccesses               0                       # Number of vector instruction queue wakeup accesses (Count)
system.cpu.intAluAccesses                   304027404                       # Number of integer alu accesses (Count)
system.cpu.fpAluAccesses                    124399870                       # Number of floating point alu accesses (Count)
system.cpu.vecAluAccesses                           0                       # Number of vector alu accesses (Count)
system.cpu.numSquashedInsts                   2648995                       # Number of squashed instructions skipped in execute (Count)
system.cpu.numSwp                                   0                       # Number of swp insts executed (Count)
system.cpu.timesIdled                           34773                       # Number of times that the entire CPU went into an idle state and unscheduled itself (Count)
system.cpu.idleCycles                          206306                       # Total number of cycles that the CPU has spent unscheduled due to idling (Cycle)
system.cpu.MemDepUnit__0.insertedLoads       34753547                       # Number of loads inserted to the mem dependence unit. (Count)
system.cpu.MemDepUnit__0.insertedStores       8074159                       # Number of stores inserted to the mem dependence unit. (Count)
system.cpu.MemDepUnit__0.conflictingLoads       197256                       # Number of conflicting loads. (Count)
system.cpu.MemDepUnit__0.conflictingStores       160488                       # Number of conflicting stores. (Count)
system.cpu.MemDepUnit__1.insertedLoads              0                       # Number of loads inserted to the mem dependence unit. (Count)
system.cpu.MemDepUnit__1.insertedStores             0                       # Number of stores inserted to the mem dependence unit. (Count)
system.cpu.MemDepUnit__1.conflictingLoads            0                       # Number of conflicting loads. (Count)
system.cpu.MemDepUnit__1.conflictingStores            0                       # Number of conflicting stores. (Count)
system.cpu.MemDepUnit__2.insertedLoads              0                       # Number of loads inserted to the mem dependence unit. (Count)
system.cpu.MemDepUnit__2.insertedStores             0                       # Number of stores inserted to the mem dependence unit. (Count)
system.cpu.MemDepUnit__2.conflictingLoads            0                       # Number of conflicting loads. (Count)
system.cpu.MemDepUnit__2.conflictingStores            0                       # Number of conflicting stores. (Count)
system.cpu.MemDepUnit__3.insertedLoads              0                       # Number of loads inserted to the mem dependence unit. (Count)
system.cpu.MemDepUnit__3.insertedStores             0                       # Number of stores inserted to the mem dependence unit. (Count)
system.cpu.MemDepUnit__3.conflictingLoads            0                       # Number of conflicting loads. (Count)
system.cpu.MemDepUnit__3.conflictingStores            0                       # Number of conflicting stores. (Count)
system.cpu.branchPred.lookups_0::NoBranch         2111      0.00%      0.00% # Number of BP lookups (Count)
system.cpu.branchPred.lookups_0::Return        358330      0.77%      0.78% # Number of BP lookups (Count)
system.cpu.branchPred.lookups_0::CallDirect       373759      0.81%      1.59% # Number of BP lookups (Count)
system.cpu.branchPred.lookups_0::CallIndirect         1253      0.00%      1.59% # Number of BP lookups (Count)
system.cpu.branchPred.lookups_0::DirectCond     41674505     90.07%     91.66% # Number of BP lookups (Count)
system.cpu.branchPred.lookups_0::DirectUncond      3659230      7.91%     99.56% # Number of BP lookups (Count)
system.cpu.branchPred.lookups_0::IndirectCond            0      0.00%     99.56% # Number of BP lookups (Count)
system.cpu.branchPred.lookups_0::IndirectUncond       201358      0.44%    100.00% # Number of BP lookups (Count)
system.cpu.branchPred.lookups_0::total       46270546                       # Number of BP lookups (Count)
system.cpu.branchPred.squashes_0::NoBranch         1866      0.02%      0.02% # Number of branches that got squashed (completely removed) as an earlier branch was mispredicted. (Count)
system.cpu.branchPred.squashes_0::Return         6619      0.06%      0.07% # Number of branches that got squashed (completely removed) as an earlier branch was mispredicted. (Count)
system.cpu.branchPred.squashes_0::CallDirect        22662      0.19%      0.26% # Number of branches that got squashed (completely removed) as an earlier branch was mispredicted. (Count)
system.cpu.branchPred.squashes_0::CallIndirect          634      0.01%      0.27% # Number of branches that got squashed (completely removed) as an earlier branch was mispredicted. (Count)
system.cpu.branchPred.squashes_0::DirectCond     10446394     88.41%     88.68% # Number of branches that got squashed (completely removed) as an earlier branch was mispredicted. (Count)
system.cpu.branchPred.squashes_0::DirectUncond      1327019     11.23%     99.91% # Number of branches that got squashed (completely removed) as an earlier branch was mispredicted. (Count)
system.cpu.branchPred.squashes_0::IndirectCond            0      0.00%     99.91% # Number of branches that got squashed (completely removed) as an earlier branch was mispredicted. (Count)
system.cpu.branchPred.squashes_0::IndirectUncond        10277      0.09%    100.00% # Number of branches that got squashed (completely removed) as an earlier branch was mispredicted. (Count)
system.cpu.branchPred.squashes_0::total      11815471                       # Number of branches that got squashed (completely removed) as an earlier branch was mispredicted. (Count)
system.cpu.branchPred.corrected_0::NoBranch          399      0.03%      0.03% # Number of branches that got corrected but not yet commited. Branches get corrected by decode or after execute. Also a branch misprediction can be detected out-of-order. Therefore, a corrected branch might not end up beeing committed in case an even earlier branch was mispredicted (Count)
system.cpu.branchPred.corrected_0::Return           16      0.00%      0.03% # Number of branches that got corrected but not yet commited. Branches get corrected by decode or after execute. Also a branch misprediction can be detected out-of-order. Therefore, a corrected branch might not end up beeing committed in case an even earlier branch was mispredicted (Count)
system.cpu.branchPred.corrected_0::CallDirect         1199      0.10%      0.13% # Number of branches that got corrected but not yet commited. Branches get corrected by decode or after execute. Also a branch misprediction can be detected out-of-order. Therefore, a corrected branch might not end up beeing committed in case an even earlier branch was mispredicted (Count)
system.cpu.branchPred.corrected_0::CallIndirect          254      0.02%      0.15% # Number of branches that got corrected but not yet commited. Branches get corrected by decode or after execute. Also a branch misprediction can be detected out-of-order. Therefore, a corrected branch might not end up beeing committed in case an even earlier branch was mispredicted (Count)
system.cpu.branchPred.corrected_0::DirectCond      1209084     99.68%     99.83% # Number of branches that got corrected but not yet commited. Branches get corrected by decode or after execute. Also a branch misprediction can be detected out-of-order. Therefore, a corrected branch might not end up beeing committed in case an even earlier branch was mispredicted (Count)
system.cpu.branchPred.corrected_0::DirectUncond          725      0.06%     99.89% # Number of branches that got corrected but not yet commited. Branches get corrected by decode or after execute. Also a branch misprediction can be detected out-of-order. Therefore, a corrected branch might not end up beeing committed in case an even earlier branch was mispredicted (Count)
system.cpu.branchPred.corrected_0::IndirectCond            0      0.00%     99.89% # Number of branches that got corrected but not yet commited. Branches get corrected by decode or after execute. Also a branch misprediction can be detected out-of-order. Therefore, a corrected branch might not end up beeing committed in case an even earlier branch was mispredicted (Count)
system.cpu.branchPred.corrected_0::IndirectUncond         1291      0.11%    100.00% # Number of branches that got corrected but not yet commited. Branches get corrected by decode or after execute. Also a branch misprediction can be detected out-of-order. Therefore, a corrected branch might not end up beeing committed in case an even earlier branch was mispredicted (Count)
system.cpu.branchPred.corrected_0::total      1212968                       # Number of branches that got corrected but not yet commited. Branches get corrected by decode or after execute. Also a branch misprediction can be detected out-of-order. Therefore, a corrected branch might not end up beeing committed in case an even earlier branch was mispredicted (Count)
system.cpu.branchPred.earlyResteers_0::NoBranch            0                       # Number of branches that got redirected after decode. (Count)
system.cpu.branchPred.earlyResteers_0::Return            0                       # Number of branches that got redirected after decode. (Count)
system.cpu.branchPred.earlyResteers_0::CallDirect            0                       # Number of branches that got redirected after decode. (Count)
system.cpu.branchPred.earlyResteers_0::CallIndirect            0                       # Number of branches that got redirected after decode. (Count)
system.cpu.branchPred.earlyResteers_0::DirectCond            0                       # Number of branches that got redirected after decode. (Count)
system.cpu.branchPred.earlyResteers_0::DirectUncond            0                       # Number of branches that got redirected after decode. (Count)
system.cpu.branchPred.earlyResteers_0::IndirectCond            0                       # Number of branches that got redirected after decode. (Count)
system.cpu.branchPred.earlyResteers_0::IndirectUncond            0                       # Number of branches that got redirected after decode. (Count)
system.cpu.branchPred.earlyResteers_0::total            0                       # Number of branches that got redirected after decode. (Count)
system.cpu.branchPred.committed_0::NoBranch          245      0.00%      0.00% # Number of branches finally committed  (Count)
system.cpu.branchPred.committed_0::Return       351710      1.02%      1.02% # Number of branches finally committed  (Count)
system.cpu.branchPred.committed_0::CallDirect       351096      1.02%      2.04% # Number of branches finally committed  (Count)
system.cpu.branchPred.committed_0::CallIndirect          619      0.00%      2.04% # Number of branches finally committed  (Count)
system.cpu.branchPred.committed_0::DirectCond     31228111     90.63%     92.68% # Number of branches finally committed  (Count)
system.cpu.branchPred.committed_0::DirectUncond      2332211      6.77%     99.45% # Number of branches finally committed  (Count)
system.cpu.branchPred.committed_0::IndirectCond            0      0.00%     99.45% # Number of branches finally committed  (Count)
system.cpu.branchPred.committed_0::IndirectUncond       191081      0.55%    100.00% # Number of branches finally committed  (Count)
system.cpu.branchPred.committed_0::total     34455073                       # Number of branches finally committed  (Count)
system.cpu.branchPred.mispredicted_0::NoBranch          245      0.02%      0.02% # Number of committed branches that were mispredicted. (Count)
system.cpu.branchPred.mispredicted_0::Return            0      0.00%      0.02% # Number of committed branches that were mispredicted. (Count)
system.cpu.branchPred.mispredicted_0::CallDirect          699      0.06%      0.08% # Number of committed branches that were mispredicted. (Count)
system.cpu.branchPred.mispredicted_0::CallIndirect          227      0.02%      0.10% # Number of committed branches that were mispredicted. (Count)
system.cpu.branchPred.mispredicted_0::DirectCond      1196923     99.77%     99.86% # Number of committed branches that were mispredicted. (Count)
system.cpu.branchPred.mispredicted_0::DirectUncond          400      0.03%     99.90% # Number of committed branches that were mispredicted. (Count)
system.cpu.branchPred.mispredicted_0::IndirectCond            0      0.00%     99.90% # Number of committed branches that were mispredicted. (Count)
system.cpu.branchPred.mispredicted_0::IndirectUncond         1227      0.10%    100.00% # Number of committed branches that were mispredicted. (Count)
system.cpu.branchPred.mispredicted_0::total      1199721                       # Number of committed branches that were mispredicted. (Count)
system.cpu.branchPred.targetProvider_0::NoTarget     20275476     43.82%     43.82% # The component providing the target for taken branches (Count)
system.cpu.branchPred.targetProvider_0::BTB     25441524     54.98%     98.80% # The component providing the target for taken branches (Count)
system.cpu.branchPred.targetProvider_0::RAS       358329      0.77%     99.58% # The component providing the target for taken branches (Count)
system.cpu.branchPred.targetProvider_0::Indirect       195217      0.42%    100.00% # The component providing the target for taken branches (Count)
system.cpu.branchPred.targetProvider_0::total     46270546                       # The component providing the target for taken branches (Count)
system.cpu.branchPred.targetWrong_0::NoBranch       502920     42.68%     42.68% # Number of branches where the target was incorrect or not available at prediction time. (Count)
system.cpu.branchPred.targetWrong_0::Return       675257     57.31%     99.99% # Number of branches where the target was incorrect or not available at prediction time. (Count)
system.cpu.branchPred.targetWrong_0::CallDirect           16      0.00%     99.99% # Number of branches where the target was incorrect or not available at prediction time. (Count)
system.cpu.branchPred.targetWrong_0::CallIndirect          127      0.01%    100.00% # Number of branches where the target was incorrect or not available at prediction time. (Count)
system.cpu.branchPred.targetWrong_0::DirectCond            0      0.00%    100.00% # Number of branches where the target was incorrect or not available at prediction time. (Count)
system.cpu.branchPred.targetWrong_0::DirectUncond            0      0.00%    100.00% # Number of branches where the target was incorrect or not available at prediction time. (Count)
system.cpu.branchPred.targetWrong_0::IndirectCond            0      0.00%    100.00% # Number of branches where the target was incorrect or not available at prediction time. (Count)
system.cpu.branchPred.targetWrong_0::IndirectUncond            0      0.00%    100.00% # Number of branches where the target was incorrect or not available at prediction time. (Count)
system.cpu.branchPred.targetWrong_0::total      1178320                       # Number of branches where the target was incorrect or not available at prediction time. (Count)
system.cpu.branchPred.condPredicted          41676616                       # Number of conditional branches predicted (Count)
system.cpu.branchPred.condPredictedTaken     21423362                       # Number of conditional branches predicted as taken (Count)
system.cpu.branchPred.condIncorrect           1212968                       # Number of conditional branches incorrect (Count)
system.cpu.branchPred.predTakenBTBMiss           2211                       # Number of branches predicted taken but missed in BTB (Count)
system.cpu.branchPred.NotTakenMispredicted       504693                       # Number branches predicted 'not taken' but turned out to be taken (Count)
system.cpu.branchPred.TakenMispredicted        708275                       # Number branches predicted taken but are actually not taken (Count)
system.cpu.branchPred.BTBLookups             46270546                       # Number of BTB lookups (Count)
system.cpu.branchPred.BTBUpdates               502733                       # Number of BTB updates (Count)
system.cpu.branchPred.BTBHits                36694683                       # Number of BTB hits (Count)
system.cpu.branchPred.BTBHitRatio            0.793046                       # BTB Hit Ratio (Ratio)
system.cpu.branchPred.BTBMispredicted            3202                       # Number BTB mispredictions. No target found or target wrong (Count)
system.cpu.branchPred.indirectLookups          202611                       # Number of indirect predictor lookups. (Count)
system.cpu.branchPred.indirectHits             195217                       # Number of indirect target hits. (Count)
system.cpu.branchPred.indirectMisses             7394                       # Number of indirect misses. (Count)
system.cpu.branchPred.indirectMispredicted            0                       # Number of mispredicted indirect branches. (Count)
system.cpu.branchPred.btb.lookups::NoBranch         2111      0.00%      0.00% # Number of BTB lookups (Count)
system.cpu.branchPred.btb.lookups::Return       358330      0.77%      0.78% # Number of BTB lookups (Count)
system.cpu.branchPred.btb.lookups::CallDirect       373759      0.81%      1.59% # Number of BTB lookups (Count)
system.cpu.branchPred.btb.lookups::CallIndirect         1253      0.00%      1.59% # Number of BTB lookups (Count)
system.cpu.branchPred.btb.lookups::DirectCond     41674505     90.07%     91.66% # Number of BTB lookups (Count)
system.cpu.branchPred.btb.lookups::DirectUncond      3659230      7.91%     99.56% # Number of BTB lookups (Count)
system.cpu.branchPred.btb.lookups::IndirectCond            0      0.00%     99.56% # Number of BTB lookups (Count)
system.cpu.branchPred.btb.lookups::IndirectUncond       201358      0.44%    100.00% # Number of BTB lookups (Count)
system.cpu.branchPred.btb.lookups::total     46270546                       # Number of BTB lookups (Count)
system.cpu.branchPred.btb.misses::NoBranch          367      0.00%      0.00% # Number of BTB misses (Count)
system.cpu.branchPred.btb.misses::Return       358330      3.74%      3.75% # Number of BTB misses (Count)
system.cpu.branchPred.btb.misses::CallDirect         1636      0.02%      3.76% # Number of BTB misses (Count)
system.cpu.branchPred.btb.misses::CallIndirect         1253      0.01%      3.78% # Number of BTB misses (Count)
system.cpu.branchPred.btb.misses::DirectCond      9011829     94.11%     97.89% # Number of BTB misses (Count)
system.cpu.branchPred.btb.misses::DirectUncond         1090      0.01%     97.90% # Number of BTB misses (Count)
system.cpu.branchPred.btb.misses::IndirectCond            0      0.00%     97.90% # Number of BTB misses (Count)
system.cpu.branchPred.btb.misses::IndirectUncond       201358      2.10%    100.00% # Number of BTB misses (Count)
system.cpu.branchPred.btb.misses::total       9575863                       # Number of BTB misses (Count)
system.cpu.branchPred.btb.updates::NoBranch            0      0.00%      0.00% # Number of BTB updates (Count)
system.cpu.branchPred.btb.updates::Return            0      0.00%      0.00% # Number of BTB updates (Count)
system.cpu.branchPred.btb.updates::CallDirect         1199      0.24%      0.24% # Number of BTB updates (Count)
system.cpu.branchPred.btb.updates::CallIndirect            0      0.00%      0.24% # Number of BTB updates (Count)
system.cpu.branchPred.btb.updates::DirectCond       500809     99.62%     99.86% # Number of BTB updates (Count)
system.cpu.branchPred.btb.updates::DirectUncond          725      0.14%    100.00% # Number of BTB updates (Count)
system.cpu.branchPred.btb.updates::IndirectCond            0      0.00%    100.00% # Number of BTB updates (Count)
system.cpu.branchPred.btb.updates::IndirectUncond            0      0.00%    100.00% # Number of BTB updates (Count)
system.cpu.branchPred.btb.updates::total       502733                       # Number of BTB updates (Count)
system.cpu.branchPred.btb.mispredict::NoBranch            0      0.00%      0.00% # Number of BTB mispredictions. No target found or target wrong. (Count)
system.cpu.branchPred.btb.mispredict::Return            0      0.00%      0.00% # Number of BTB mispredictions. No target found or target wrong. (Count)
system.cpu.branchPred.btb.mispredict::CallDirect         1199      0.24%      0.24% # Number of BTB mispredictions. No target found or target wrong. (Count)
system.cpu.branchPred.btb.mispredict::CallIndirect            0      0.00%      0.24% # Number of BTB mispredictions. No target found or target wrong. (Count)
system.cpu.branchPred.btb.mispredict::DirectCond       500809     99.62%     99.86% # Number of BTB mispredictions. No target found or target wrong. (Count)
system.cpu.branchPred.btb.mispredict::DirectUncond          725      0.14%    100.00% # Number of BTB mispredictions. No target found or target wrong. (Count)
system.cpu.branchPred.btb.mispredict::IndirectCond            0      0.00%    100.00% # Number of BTB mispredictions. No target found or target wrong. (Count)
system.cpu.branchPred.btb.mispredict::IndirectUncond            0      0.00%    100.00% # Number of BTB mispredictions. No target found or target wrong. (Count)
system.cpu.branchPred.btb.mispredict::total       502733                       # Number of BTB mispredictions. No target found or target wrong. (Count)
system.cpu.branchPred.btb.power_state.pwrStateResidencyTicks::UNDEFINED 1624456160914                       # Cumulative time (in ticks) in various power states (Tick)
system.cpu.branchPred.indirectBranchPred.lookups       202611                       # Number of lookups (Count)
system.cpu.branchPred.indirectBranchPred.hits       195217                       # Number of hits of a tag (Count)
system.cpu.branchPred.indirectBranchPred.misses         7394                       # Number of misses (Count)
system.cpu.branchPred.indirectBranchPred.targetRecords         1545                       # Number of targets that where recorded/installed in the cache (Count)
system.cpu.branchPred.indirectBranchPred.indirectRecords       204156                       # Number of indirect branches/calls recorded in the indirect hist (Count)
system.cpu.branchPred.indirectBranchPred.speculativeOverflows            1                       # Number of times more than the allowed capacity for speculative branches/calls where in flight and destroy the path history (Count)
system.cpu.branchPred.ras.pushes               381631                       # Number of times a PC was pushed onto the RAS (Count)
system.cpu.branchPred.ras.pops                 381626                       # Number of times a PC was poped from the RAS (Count)
system.cpu.branchPred.ras.squashes              29915                       # Number of times the stack operation was squashed due to wrong speculation. (Count)
system.cpu.branchPred.ras.used                 351710                       # Number of times the RAS is the provider (Count)
system.cpu.branchPred.ras.correct              351710                       # Number of times the RAS is the provider and the prediction is correct (Count)
system.cpu.branchPred.ras.incorrect                 0                       # Number of times the RAS is the provider and the prediction is wrong (Count)
system.cpu.commit.commitSquashedInsts       107195495                       # The number of squashed insts skipped by commit (Count)
system.cpu.commit.commitNonSpecStalls            2622                       # The number of times commit has been forced to stall to communicate backwards (Count)
system.cpu.commit.branchMispredicts           1211130                       # The number of times a branch was mispredicted (Count)
system.cpu.commit.numCommittedDist::samples    107661939                       # Number of insts commited each cycle (Count)
system.cpu.commit.numCommittedDist::mean     3.158109                       # Number of insts commited each cycle (Count)
system.cpu.commit.numCommittedDist::stdev     3.179380                       # Number of insts commited each cycle (Count)
system.cpu.commit.numCommittedDist::underflows            0      0.00%      0.00% # Number of insts commited each cycle (Count)
system.cpu.commit.numCommittedDist::0        34601348     32.14%     32.14% # Number of insts commited each cycle (Count)
system.cpu.commit.numCommittedDist::1        10062374      9.35%     41.49% # Number of insts commited each cycle (Count)
system.cpu.commit.numCommittedDist::2        14114629     13.11%     54.60% # Number of insts commited each cycle (Count)
system.cpu.commit.numCommittedDist::3        12032769     11.18%     65.77% # Number of insts commited each cycle (Count)
system.cpu.commit.numCommittedDist::4         3648224      3.39%     69.16% # Number of insts commited each cycle (Count)
system.cpu.commit.numCommittedDist::5         3150409      2.93%     72.09% # Number of insts commited each cycle (Count)
system.cpu.commit.numCommittedDist::6         1977197      1.84%     73.92% # Number of insts commited each cycle (Count)
system.cpu.commit.numCommittedDist::7         1189793      1.11%     75.03% # Number of insts commited each cycle (Count)
system.cpu.commit.numCommittedDist::8        26885196     24.97%    100.00% # Number of insts commited each cycle (Count)
system.cpu.commit.numCommittedDist::overflows            0      0.00%    100.00% # Number of insts commited each cycle (Count)
system.cpu.commit.numCommittedDist::min_value            0                       # Number of insts commited each cycle (Count)
system.cpu.commit.numCommittedDist::max_value            8                       # Number of insts commited each cycle (Count)
system.cpu.commit.numCommittedDist::total    107661939                       # Number of insts commited each cycle (Count)
system.cpu.commit.amos                              0                       # Number of atomic instructions committed (Count)
system.cpu.commit.membars                        1124                       # Number of memory barriers committed (Count)
system.cpu.commit.functionCalls                351715                       # Number of function calls committed. (Count)
system.cpu.commit.committedInstType_0::No_OpClass       685607      0.20%      0.20% # Class of committed instruction (Count)
system.cpu.commit.committedInstType_0::IntAlu    241087633     70.91%     71.11% # Class of committed instruction (Count)
system.cpu.commit.committedInstType_0::IntMult       104206      0.03%     71.14% # Class of committed instruction (Count)
system.cpu.commit.committedInstType_0::IntDiv      1201856      0.35%     71.49% # Class of committed instruction (Count)
system.cpu.commit.committedInstType_0::FloatAdd     10933966      3.22%     74.71% # Class of committed instruction (Count)
system.cpu.commit.committedInstType_0::FloatCmp            0      0.00%     74.71% # Class of committed instruction (Count)
system.cpu.commit.committedInstType_0::FloatCvt         1632      0.00%     74.71% # Class of committed instruction (Count)
system.cpu.commit.committedInstType_0::FloatMult            0      0.00%     74.71% # Class of committed instruction (Count)
system.cpu.commit.committedInstType_0::FloatMultAcc            0      0.00%     74.71% # Class of committed instruction (Count)
system.cpu.commit.committedInstType_0::FloatDiv            0      0.00%     74.71% # Class of committed instruction (Count)
system.cpu.commit.committedInstType_0::FloatMisc            0      0.00%     74.71% # Class of committed instruction (Count)
system.cpu.commit.committedInstType_0::FloatSqrt            0      0.00%     74.71% # Class of committed instruction (Count)
system.cpu.commit.committedInstType_0::SimdAdd      1399088      0.41%     75.12% # Class of committed instruction (Count)
system.cpu.commit.committedInstType_0::SimdAddAcc            0      0.00%     75.12% # Class of committed instruction (Count)
system.cpu.commit.committedInstType_0::SimdAlu       278341      0.08%     75.20% # Class of committed instruction (Count)
system.cpu.commit.committedInstType_0::SimdCmp            6      0.00%     75.20% # Class of committed instruction (Count)
system.cpu.commit.committedInstType_0::SimdCvt        78966      0.02%     75.23% # Class of committed instruction (Count)
system.cpu.commit.committedInstType_0::SimdMisc       808737      0.24%     75.46% # Class of committed instruction (Count)
system.cpu.commit.committedInstType_0::SimdMult            0      0.00%     75.46% # Class of committed instruction (Count)
system.cpu.commit.committedInstType_0::SimdMultAcc            0      0.00%     75.46% # Class of committed instruction (Count)
system.cpu.commit.committedInstType_0::SimdMatMultAcc            0      0.00%     75.46% # Class of committed instruction (Count)
system.cpu.commit.committedInstType_0::SimdShift         1520      0.00%     75.46% # Class of committed instruction (Count)
system.cpu.commit.committedInstType_0::SimdShiftAcc            0      0.00%     75.46% # Class of committed instruction (Count)
system.cpu.commit.committedInstType_0::SimdDiv            0      0.00%     75.46% # Class of committed instruction (Count)
system.cpu.commit.committedInstType_0::SimdSqrt            0      0.00%     75.46% # Class of committed instruction (Count)
system.cpu.commit.committedInstType_0::SimdFloatAdd     23491409      6.91%     82.37% # Class of committed instruction (Count)
system.cpu.commit.committedInstType_0::SimdFloatAlu            0      0.00%     82.37% # Class of committed instruction (Count)
system.cpu.commit.committedInstType_0::SimdFloatCmp      1667530      0.49%     82.86% # Class of committed instruction (Count)
system.cpu.commit.committedInstType_0::SimdFloatCvt     11277207      3.32%     86.18% # Class of committed instruction (Count)
system.cpu.commit.committedInstType_0::SimdFloatDiv           86      0.00%     86.18% # Class of committed instruction (Count)
system.cpu.commit.committedInstType_0::SimdFloatMisc            0      0.00%     86.18% # Class of committed instruction (Count)
system.cpu.commit.committedInstType_0::SimdFloatMult     14203330      4.18%     90.36% # Class of committed instruction (Count)
system.cpu.commit.committedInstType_0::SimdFloatMultAcc            0      0.00%     90.36% # Class of committed instruction (Count)
system.cpu.commit.committedInstType_0::SimdFloatMatMultAcc            0      0.00%     90.36% # Class of committed instruction (Count)
system.cpu.commit.committedInstType_0::SimdFloatSqrt            0      0.00%     90.36% # Class of committed instruction (Count)
system.cpu.commit.committedInstType_0::SimdReduceAdd            0      0.00%     90.36% # Class of committed instruction (Count)
system.cpu.commit.committedInstType_0::SimdReduceAlu            0      0.00%     90.36% # Class of committed instruction (Count)
system.cpu.commit.committedInstType_0::SimdReduceCmp            0      0.00%     90.36% # Class of committed instruction (Count)
system.cpu.commit.committedInstType_0::SimdFloatReduceAdd            0      0.00%     90.36% # Class of committed instruction (Count)
system.cpu.commit.committedInstType_0::SimdFloatReduceCmp            0      0.00%     90.36% # Class of committed instruction (Count)
system.cpu.commit.committedInstType_0::SimdAes            0      0.00%     90.36% # Class of committed instruction (Count)
system.cpu.commit.committedInstType_0::SimdAesMix            0      0.00%     90.36% # Class of committed instruction (Count)
system.cpu.commit.committedInstType_0::SimdSha1Hash            0      0.00%     90.36% # Class of committed instruction (Count)
system.cpu.commit.committedInstType_0::SimdSha1Hash2            0      0.00%     90.36% # Class of committed instruction (Count)
system.cpu.commit.committedInstType_0::SimdSha256Hash            0      0.00%     90.36% # Class of committed instruction (Count)
system.cpu.commit.committedInstType_0::SimdSha256Hash2            0      0.00%     90.36% # Class of committed instruction (Count)
system.cpu.commit.committedInstType_0::SimdShaSigma2            0      0.00%     90.36% # Class of committed instruction (Count)
system.cpu.commit.committedInstType_0::SimdShaSigma3            0      0.00%     90.36% # Class of committed instruction (Count)
system.cpu.commit.committedInstType_0::SimdPredAlu            0      0.00%     90.36% # Class of committed instruction (Count)
system.cpu.commit.committedInstType_0::Matrix            0      0.00%     90.36% # Class of committed instruction (Count)
system.cpu.commit.committedInstType_0::MatrixMov            0      0.00%     90.36% # Class of committed instruction (Count)
system.cpu.commit.committedInstType_0::MatrixOP            0      0.00%     90.36% # Class of committed instruction (Count)
system.cpu.commit.committedInstType_0::MemRead     15649158      4.60%     94.96% # Class of committed instruction (Count)
system.cpu.commit.committedInstType_0::MemWrite      5238465      1.54%     96.50% # Class of committed instruction (Count)
system.cpu.commit.committedInstType_0::FloatMemRead     11044093      3.25%     99.75% # Class of committed instruction (Count)
system.cpu.commit.committedInstType_0::FloatMemWrite       855345      0.25%    100.00% # Class of committed instruction (Count)
system.cpu.commit.committedInstType_0::IprAccess            0      0.00%    100.00% # Class of committed instruction (Count)
system.cpu.commit.committedInstType_0::InstPrefetch            0      0.00%    100.00% # Class of committed instruction (Count)
system.cpu.commit.committedInstType_0::SimdUnitStrideLoad            0      0.00%    100.00% # Class of committed instruction (Count)
system.cpu.commit.committedInstType_0::SimdUnitStrideStore            0      0.00%    100.00% # Class of committed instruction (Count)
system.cpu.commit.committedInstType_0::SimdUnitStrideMaskLoad            0      0.00%    100.00% # Class of committed instruction (Count)
system.cpu.commit.committedInstType_0::SimdUnitStrideMaskStore            0      0.00%    100.00% # Class of committed instruction (Count)
system.cpu.commit.committedInstType_0::SimdStridedLoad            0      0.00%    100.00% # Class of committed instruction (Count)
system.cpu.commit.committedInstType_0::SimdStridedStore            0      0.00%    100.00% # Class of committed instruction (Count)
system.cpu.commit.committedInstType_0::SimdIndexedLoad            0      0.00%    100.00% # Class of committed instruction (Count)
system.cpu.commit.committedInstType_0::SimdIndexedStore            0      0.00%    100.00% # Class of committed instruction (Count)
system.cpu.commit.committedInstType_0::SimdWholeRegisterLoad            0      0.00%    100.00% # Class of committed instruction (Count)
system.cpu.commit.committedInstType_0::SimdWholeRegisterStore            0      0.00%    100.00% # Class of committed instruction (Count)
system.cpu.commit.committedInstType_0::SimdUnitStrideFaultOnlyFirstLoad            0      0.00%    100.00% # Class of committed instruction (Count)
system.cpu.commit.committedInstType_0::SimdUnitStrideSegmentedLoad            0      0.00%    100.00% # Class of committed instruction (Count)
system.cpu.commit.committedInstType_0::SimdUnitStrideSegmentedStore            0      0.00%    100.00% # Class of committed instruction (Count)
system.cpu.commit.committedInstType_0::SimdExt            0      0.00%    100.00% # Class of committed instruction (Count)
system.cpu.commit.committedInstType_0::SimdFloatExt            0      0.00%    100.00% # Class of committed instruction (Count)
system.cpu.commit.committedInstType_0::SimdConfig            0      0.00%    100.00% # Class of committed instruction (Count)
system.cpu.commit.committedInstType_0::total    340008181                       # Class of committed instruction (Count)
system.cpu.commit.commitEligibleSamples      26885196                       # number cycles where commit BW limit reached (Cycle)
system.cpu.commitStats0.numInsts            207772930                       # Number of instructions committed (thread level) (Count)
system.cpu.commitStats0.numOps              340008181                       # Number of ops (including micro ops) committed (thread level) (Count)
system.cpu.commitStats0.numInstsNotNOP      207772930                       # Number of instructions committed excluding NOPs or prefetches (Count)
system.cpu.commitStats0.numOpsNotNOP        340008181                       # Number of Ops (including micro ops) Simulated (Count)
system.cpu.commitStats0.cpi                  0.586396                       # CPI: cycles per instruction (thread level) ((Cycle/Count))
system.cpu.commitStats0.ipc                  1.705332                       # IPC: instructions per cycle (thread level) ((Count/Cycle))
system.cpu.commitStats0.numMemRefs           32787061                       # Number of memory references committed (Count)
system.cpu.commitStats0.numFpInsts           97679482                       # Number of float instructions (Count)
system.cpu.commitStats0.numIntInsts         253278558                       # Number of integer instructions (Count)
system.cpu.commitStats0.numLoadInsts         26693251                       # Number of load instructions (Count)
system.cpu.commitStats0.numStoreInsts         6093810                       # Number of store instructions (Count)
system.cpu.commitStats0.numVecInsts                 0                       # Number of vector instructions (Count)
system.cpu.commitStats0.committedInstType::No_OpClass       685607      0.20%      0.20% # Class of committed instruction. (Count)
system.cpu.commitStats0.committedInstType::IntAlu    241087633     70.91%     71.11% # Class of committed instruction. (Count)
system.cpu.commitStats0.committedInstType::IntMult       104206      0.03%     71.14% # Class of committed instruction. (Count)
system.cpu.commitStats0.committedInstType::IntDiv      1201856      0.35%     71.49% # Class of committed instruction. (Count)
system.cpu.commitStats0.committedInstType::FloatAdd     10933966      3.22%     74.71% # Class of committed instruction. (Count)
system.cpu.commitStats0.committedInstType::FloatCmp            0      0.00%     74.71% # Class of committed instruction. (Count)
system.cpu.commitStats0.committedInstType::FloatCvt         1632      0.00%     74.71% # Class of committed instruction. (Count)
system.cpu.commitStats0.committedInstType::FloatMult            0      0.00%     74.71% # Class of committed instruction. (Count)
system.cpu.commitStats0.committedInstType::FloatMultAcc            0      0.00%     74.71% # Class of committed instruction. (Count)
system.cpu.commitStats0.committedInstType::FloatDiv            0      0.00%     74.71% # Class of committed instruction. (Count)
system.cpu.commitStats0.committedInstType::FloatMisc            0      0.00%     74.71% # Class of committed instruction. (Count)
system.cpu.commitStats0.committedInstType::FloatSqrt            0      0.00%     74.71% # Class of committed instruction. (Count)
system.cpu.commitStats0.committedInstType::SimdAdd      1399088      0.41%     75.12% # Class of committed instruction. (Count)
system.cpu.commitStats0.committedInstType::SimdAddAcc            0      0.00%     75.12% # Class of committed instruction. (Count)
system.cpu.commitStats0.committedInstType::SimdAlu       278341      0.08%     75.20% # Class of committed instruction. (Count)
system.cpu.commitStats0.committedInstType::SimdCmp            6      0.00%     75.20% # Class of committed instruction. (Count)
system.cpu.commitStats0.committedInstType::SimdCvt        78966      0.02%     75.23% # Class of committed instruction. (Count)
system.cpu.commitStats0.committedInstType::SimdMisc       808737      0.24%     75.46% # Class of committed instruction. (Count)
system.cpu.commitStats0.committedInstType::SimdMult            0      0.00%     75.46% # Class of committed instruction. (Count)
system.cpu.commitStats0.committedInstType::SimdMultAcc            0      0.00%     75.46% # Class of committed instruction. (Count)
system.cpu.commitStats0.committedInstType::SimdMatMultAcc            0      0.00%     75.46% # Class of committed instruction. (Count)
system.cpu.commitStats0.committedInstType::SimdShift         1520      0.00%     75.46% # Class of committed instruction. (Count)
system.cpu.commitStats0.committedInstType::SimdShiftAcc            0      0.00%     75.46% # Class of committed instruction. (Count)
system.cpu.commitStats0.committedInstType::SimdDiv            0      0.00%     75.46% # Class of committed instruction. (Count)
system.cpu.commitStats0.committedInstType::SimdSqrt            0      0.00%     75.46% # Class of committed instruction. (Count)
system.cpu.commitStats0.committedInstType::SimdFloatAdd     23491409      6.91%     82.37% # Class of committed instruction. (Count)
system.cpu.commitStats0.committedInstType::SimdFloatAlu            0      0.00%     82.37% # Class of committed instruction. (Count)
system.cpu.commitStats0.committedInstType::SimdFloatCmp      1667530      0.49%     82.86% # Class of committed instruction. (Count)
system.cpu.commitStats0.committedInstType::SimdFloatCvt     11277207      3.32%     86.18% # Class of committed instruction. (Count)
system.cpu.commitStats0.committedInstType::SimdFloatDiv           86      0.00%     86.18% # Class of committed instruction. (Count)
system.cpu.commitStats0.committedInstType::SimdFloatMisc            0      0.00%     86.18% # Class of committed instruction. (Count)
system.cpu.commitStats0.committedInstType::SimdFloatMult     14203330      4.18%     90.36% # Class of committed instruction. (Count)
system.cpu.commitStats0.committedInstType::SimdFloatMultAcc            0      0.00%     90.36% # Class of committed instruction. (Count)
system.cpu.commitStats0.committedInstType::SimdFloatMatMultAcc            0      0.00%     90.36% # Class of committed instruction. (Count)
system.cpu.commitStats0.committedInstType::SimdFloatSqrt            0      0.00%     90.36% # Class of committed instruction. (Count)
system.cpu.commitStats0.committedInstType::SimdReduceAdd            0      0.00%     90.36% # Class of committed instruction. (Count)
system.cpu.commitStats0.committedInstType::SimdReduceAlu            0      0.00%     90.36% # Class of committed instruction. (Count)
system.cpu.commitStats0.committedInstType::SimdReduceCmp            0      0.00%     90.36% # Class of committed instruction. (Count)
system.cpu.commitStats0.committedInstType::SimdFloatReduceAdd            0      0.00%     90.36% # Class of committed instruction. (Count)
system.cpu.commitStats0.committedInstType::SimdFloatReduceCmp            0      0.00%     90.36% # Class of committed instruction. (Count)
system.cpu.commitStats0.committedInstType::SimdAes            0      0.00%     90.36% # Class of committed instruction. (Count)
system.cpu.commitStats0.committedInstType::SimdAesMix            0      0.00%     90.36% # Class of committed instruction. (Count)
system.cpu.commitStats0.committedInstType::SimdSha1Hash            0      0.00%     90.36% # Class of committed instruction. (Count)
system.cpu.commitStats0.committedInstType::SimdSha1Hash2            0      0.00%     90.36% # Class of committed instruction. (Count)
system.cpu.commitStats0.committedInstType::SimdSha256Hash            0      0.00%     90.36% # Class of committed instruction. (Count)
system.cpu.commitStats0.committedInstType::SimdSha256Hash2            0      0.00%     90.36% # Class of committed instruction. (Count)
system.cpu.commitStats0.committedInstType::SimdShaSigma2            0      0.00%     90.36% # Class of committed instruction. (Count)
system.cpu.commitStats0.committedInstType::SimdShaSigma3            0      0.00%     90.36% # Class of committed instruction. (Count)
system.cpu.commitStats0.committedInstType::SimdPredAlu            0      0.00%     90.36% # Class of committed instruction. (Count)
system.cpu.commitStats0.committedInstType::Matrix            0      0.00%     90.36% # Class of committed instruction. (Count)
system.cpu.commitStats0.committedInstType::MatrixMov            0      0.00%     90.36% # Class of committed instruction. (Count)
system.cpu.commitStats0.committedInstType::MatrixOP            0      0.00%     90.36% # Class of committed instruction. (Count)
system.cpu.commitStats0.committedInstType::MemRead     15649158      4.60%     94.96% # Class of committed instruction. (Count)
system.cpu.commitStats0.committedInstType::MemWrite      5238465      1.54%     96.50% # Class of committed instruction. (Count)
system.cpu.commitStats0.committedInstType::FloatMemRead     11044093      3.25%     99.75% # Class of committed instruction. (Count)
system.cpu.commitStats0.committedInstType::FloatMemWrite       855345      0.25%    100.00% # Class of committed instruction. (Count)
system.cpu.commitStats0.committedInstType::IprAccess            0      0.00%    100.00% # Class of committed instruction. (Count)
system.cpu.commitStats0.committedInstType::InstPrefetch            0      0.00%    100.00% # Class of committed instruction. (Count)
system.cpu.commitStats0.committedInstType::SimdUnitStrideLoad            0      0.00%    100.00% # Class of committed instruction. (Count)
system.cpu.commitStats0.committedInstType::SimdUnitStrideStore            0      0.00%    100.00% # Class of committed instruction. (Count)
system.cpu.commitStats0.committedInstType::SimdUnitStrideMaskLoad            0      0.00%    100.00% # Class of committed instruction. (Count)
system.cpu.commitStats0.committedInstType::SimdUnitStrideMaskStore            0      0.00%    100.00% # Class of committed instruction. (Count)
system.cpu.commitStats0.committedInstType::SimdStridedLoad            0      0.00%    100.00% # Class of committed instruction. (Count)
system.cpu.commitStats0.committedInstType::SimdStridedStore            0      0.00%    100.00% # Class of committed instruction. (Count)
system.cpu.commitStats0.committedInstType::SimdIndexedLoad            0      0.00%    100.00% # Class of committed instruction. (Count)
system.cpu.commitStats0.committedInstType::SimdIndexedStore            0      0.00%    100.00% # Class of committed instruction. (Count)
system.cpu.commitStats0.committedInstType::SimdWholeRegisterLoad            0      0.00%    100.00% # Class of committed instruction. (Count)
system.cpu.commitStats0.committedInstType::SimdWholeRegisterStore            0      0.00%    100.00% # Class of committed instruction. (Count)
system.cpu.commitStats0.committedInstType::SimdUnitStrideFaultOnlyFirstLoad            0      0.00%    100.00% # Class of committed instruction. (Count)
system.cpu.commitStats0.committedInstType::SimdUnitStrideSegmentedLoad            0      0.00%    100.00% # Class of committed instruction. (Count)
system.cpu.commitStats0.committedInstType::SimdUnitStrideSegmentedStore            0      0.00%    100.00% # Class of committed instruction. (Count)
system.cpu.commitStats0.committedInstType::SimdExt            0      0.00%    100.00% # Class of committed instruction. (Count)
system.cpu.commitStats0.committedInstType::SimdFloatExt            0      0.00%    100.00% # Class of committed instruction. (Count)
system.cpu.commitStats0.committedInstType::SimdConfig            0      0.00%    100.00% # Class of committed instruction. (Count)
system.cpu.commitStats0.committedInstType::total    340008181                       # Class of committed instruction. (Count)
system.cpu.commitStats0.committedControl::IsControl     34455073                       # Class of control type instructions committed (Count)
system.cpu.commitStats0.committedControl::IsDirectControl     33911418                       # Class of control type instructions committed (Count)
system.cpu.commitStats0.committedControl::IsIndirectControl       543410                       # Class of control type instructions committed (Count)
system.cpu.commitStats0.committedControl::IsCondControl     31228111                       # Class of control type instructions committed (Count)
system.cpu.commitStats0.committedControl::IsUncondControl      3226717                       # Class of control type instructions committed (Count)
system.cpu.commitStats0.committedControl::IsCall       351715                       # Class of control type instructions committed (Count)
system.cpu.commitStats0.committedControl::IsReturn       351710                       # Class of control type instructions committed (Count)
system.cpu.decode.idleCycles                 27654594                       # Number of cycles decode is idle (Cycle)
system.cpu.decode.blockedCycles              24733082                       # Number of cycles decode is blocked (Cycle)
system.cpu.decode.runCycles                  59532183                       # Number of cycles decode is running (Cycle)
system.cpu.decode.unblockCycles               8498273                       # Number of cycles decode is unblocking (Cycle)
system.cpu.decode.squashCycles                1212821                       # Number of cycles decode is squashing (Cycle)
system.cpu.decode.branchResolved             24725438                       # Number of times decode resolved a branch (Count)
system.cpu.decode.branchMispred                  2138                       # Number of times decode detected a branch misprediction (Count)
system.cpu.decode.decodedInsts              467770388                       # Number of instructions handled by decode (Count)
system.cpu.decode.squashedInsts                 11372                       # Number of squashed instructions handled by decode (Count)
system.cpu.executeStats0.numInsts           413023423                       # Number of executed instructions (Count)
system.cpu.executeStats0.numNop                     0                       # Number of nop insts executed (Count)
system.cpu.executeStats0.numBranches         38674540                       # Number of branches executed (Count)
system.cpu.executeStats0.numLoadInsts        32508762                       # Number of load instructions executed (Count)
system.cpu.executeStats0.numStoreInsts        7766172                       # Number of stores executed (Count)
system.cpu.executeStats0.instRate            3.389960                       # Inst execution rate ((Count/Cycle))
system.cpu.executeStats0.numCCRegReads      237693110                       # Number of times the CC registers were read (Count)
system.cpu.executeStats0.numCCRegWrites     164264455                       # Number of times the CC registers were written (Count)
system.cpu.executeStats0.numFpRegReads      236479754                       # Number of times the floating registers were read (Count)
system.cpu.executeStats0.numFpRegWrites     109373405                       # Number of times the floating registers were written (Count)
system.cpu.executeStats0.numIntRegReads     362357087                       # Number of times the integer registers were read (Count)
system.cpu.executeStats0.numIntRegWrites    223655530                       # Number of times the integer registers were written (Count)
system.cpu.executeStats0.numMemRefs          40274934                       # Number of memory refs (Count)
system.cpu.executeStats0.numMiscRegReads    120806836                       # Number of times the Misc registers were read (Count)
system.cpu.executeStats0.numMiscRegWrites          918                       # Number of times the Misc registers were written (Count)
system.cpu.executeStats0.numVecAluAccesses            0                       # Number of vector alu accesses (Count)
system.cpu.executeStats0.numDiscardedOps            0                       # Number of ops (including micro ops) which were discarded before commit (Count)
system.cpu.fetch.predictedBranches           25995070                       # Number of branches that fetch has predicted taken (Count)
system.cpu.fetch.cycles                      97693796                       # Number of cycles fetch has run and was not squashing or blocked (Cycle)
system.cpu.fetch.squashCycles                 2429806                       # Number of cycles fetch has spent squashing (Cycle)
system.cpu.fetch.miscStallCycles                  316                       # Number of cycles fetch has spent waiting on interrupts, or bad addresses, or out of MSHRs (Cycle)
system.cpu.fetch.pendingTrapStallCycles          2998                       # Number of stall cycles due to pending traps (Cycle)
system.cpu.fetch.cacheLines                  35219274                       # Number of cache lines fetched (Count)
[...]
system.mem_ctrl.dram.bwRead::total          277564087                       # Total read bandwidth from this memory ((Byte/Second))
system.mem_ctrl.dram.bwInstRead::cpu.inst     99868825                       # Instruction read bandwidth from this memory ((Byte/Second))
system.mem_ctrl.dram.bwInstRead::total       99868825                       # Instruction read bandwidth from this memory ((Byte/Second))
system.mem_ctrl.dram.bwWrite::writebacks    131768556                       # Write bandwidth from this memory ((Byte/Second))
system.mem_ctrl.dram.bwWrite::total         131768556                       # Write bandwidth from this memory ((Byte/Second))
system.mem_ctrl.dram.bwTotal::writebacks    131768556                       # Total bandwidth to/from this memory ((Byte/Second))
system.mem_ctrl.dram.bwTotal::cpu.inst       99868825                       # Total bandwidth to/from this memory ((Byte/Second))
system.mem_ctrl.dram.bwTotal::cpu.data      177695261                       # Total bandwidth to/from this memory ((Byte/Second))
system.mem_ctrl.dram.bwTotal::total         409332642                       # Total bandwidth to/from this memory ((Byte/Second))
system.mem_ctrl.dram.readBursts                 13239                       # Number of DRAM read bursts (Count)
system.mem_ctrl.dram.writeBursts                 6234                       # Number of DRAM write bursts (Count)
system.mem_ctrl.dram.perBankRdBursts::0           783                       # Per bank write bursts (Count)
system.mem_ctrl.dram.perBankRdBursts::1           754                       # Per bank write bursts (Count)
system.mem_ctrl.dram.perBankRdBursts::2           951                       # Per bank write bursts (Count)
system.mem_ctrl.dram.perBankRdBursts::3           707                       # Per bank write bursts (Count)
system.mem_ctrl.dram.perBankRdBursts::4          1100                       # Per bank write bursts (Count)
system.mem_ctrl.dram.perBankRdBursts::5           923                       # Per bank write bursts (Count)
system.mem_ctrl.dram.perBankRdBursts::6           712                       # Per bank write bursts (Count)
system.mem_ctrl.dram.perBankRdBursts::7           515                       # Per bank write bursts (Count)
system.mem_ctrl.dram.perBankRdBursts::8           736                       # Per bank write bursts (Count)
system.mem_ctrl.dram.perBankRdBursts::9          1260                       # Per bank write bursts (Count)
system.mem_ctrl.dram.perBankRdBursts::10          515                       # Per bank write bursts (Count)
system.mem_ctrl.dram.perBankRdBursts::11          788                       # Per bank write bursts (Count)
system.mem_ctrl.dram.perBankRdBursts::12         1082                       # Per bank write bursts (Count)
system.mem_ctrl.dram.perBankRdBursts::13          869                       # Per bank write bursts (Count)
system.mem_ctrl.dram.perBankRdBursts::14          829                       # Per bank write bursts (Count)
system.mem_ctrl.dram.perBankRdBursts::15          715                       # Per bank write bursts (Count)
system.mem_ctrl.dram.perBankWrBursts::0           381                       # Per bank write bursts (Count)
system.mem_ctrl.dram.perBankWrBursts::1           362                       # Per bank write bursts (Count)
system.mem_ctrl.dram.perBankWrBursts::2           383                       # Per bank write bursts (Count)
system.mem_ctrl.dram.perBankWrBursts::3           352                       # Per bank write bursts (Count)
system.mem_ctrl.dram.perBankWrBursts::4           365                       # Per bank write bursts (Count)
system.mem_ctrl.dram.perBankWrBursts::5           353                       # Per bank write bursts (Count)
system.mem_ctrl.dram.perBankWrBursts::6           352                       # Per bank write bursts (Count)
system.mem_ctrl.dram.perBankWrBursts::7           373                       # Per bank write bursts (Count)
system.mem_ctrl.dram.perBankWrBursts::8           401                       # Per bank write bursts (Count)
system.mem_ctrl.dram.perBankWrBursts::9           415                       # Per bank write bursts (Count)
system.mem_ctrl.dram.perBankWrBursts::10          373                       # Per bank write bursts (Count)
system.mem_ctrl.dram.perBankWrBursts::11          361                       # Per bank write bursts (Count)
system.mem_ctrl.dram.perBankWrBursts::12          625                       # Per bank write bursts (Count)
system.mem_ctrl.dram.perBankWrBursts::13          385                       # Per bank write bursts (Count)
system.mem_ctrl.dram.perBankWrBursts::14          370                       # Per bank write bursts (Count)
system.mem_ctrl.dram.perBankWrBursts::15          383                       # Per bank write bursts (Count)
system.mem_ctrl.dram.totQLat                151050737                       # Total ticks spent queuing (Tick)
system.mem_ctrl.dram.totBusLat               66195000                       # Total ticks spent in databus transfers (Tick)
system.mem_ctrl.dram.totMemAccLat           399281987                       # Total ticks spent from burst creation until serviced by the DRAM (Tick)
system.mem_ctrl.dram.avgQLat                 11409.53                       # Average queueing delay per DRAM burst ((Tick/Count))
system.mem_ctrl.dram.avgBusLat                5000.00                       # Average bus latency per DRAM burst ((Tick/Count))
system.mem_ctrl.dram.avgMemAccLat            30159.53                       # Average memory access latency per DRAM burst ((Tick/Count))
system.mem_ctrl.dram.readRowHits                 9725                       # Number of row buffer hits during reads (Count)
system.mem_ctrl.dram.writeRowHits                5630                       # Number of row buffer hits during writes (Count)
system.mem_ctrl.dram.readRowHitRate             73.46                       # Row buffer hit rate for reads (Ratio)
system.mem_ctrl.dram.writeRowHitRate            90.31                       # Row buffer hit rate for writes (Ratio)
system.mem_ctrl.dram.bytesPerActivate::samples         4121                       # Bytes accessed per row activation (Byte)
system.mem_ctrl.dram.bytesPerActivate::mean   302.388741                       # Bytes accessed per row activation (Byte)
system.mem_ctrl.dram.bytesPerActivate::gmean   177.500086                       # Bytes accessed per row activation (Byte)
system.mem_ctrl.dram.bytesPerActivate::stdev   332.113931                       # Bytes accessed per row activation (Byte)
system.mem_ctrl.dram.bytesPerActivate::0-127         1478     35.87%     35.87% # Bytes accessed per row activation (Byte)
system.mem_ctrl.dram.bytesPerActivate::128-255         1196     29.02%     64.89% # Bytes accessed per row activation (Byte)
system.mem_ctrl.dram.bytesPerActivate::256-383          385      9.34%     74.23% # Bytes accessed per row activation (Byte)
system.mem_ctrl.dram.bytesPerActivate::384-511          197      4.78%     79.01% # Bytes accessed per row activation (Byte)
system.mem_ctrl.dram.bytesPerActivate::512-639           89      2.16%     81.17% # Bytes accessed per row activation (Byte)
system.mem_ctrl.dram.bytesPerActivate::640-767           65      1.58%     82.75% # Bytes accessed per row activation (Byte)
system.mem_ctrl.dram.bytesPerActivate::768-895          123      2.98%     85.73% # Bytes accessed per row activation (Byte)
system.mem_ctrl.dram.bytesPerActivate::896-1023          104      2.52%     88.26% # Bytes accessed per row activation (Byte)
system.mem_ctrl.dram.bytesPerActivate::1024-1151          484     11.74%    100.00% # Bytes accessed per row activation (Byte)
system.mem_ctrl.dram.bytesPerActivate::total         4121                       # Bytes accessed per row activation (Byte)
system.mem_ctrl.dram.dramBytesRead             847296                       # Total bytes read (Byte)
system.mem_ctrl.dram.dramBytesWritten          398976                       # Total bytes written (Byte)
system.mem_ctrl.dram.avgRdBW               267.969879                       # Average DRAM read bandwidth in MiBytes/s ((Byte/Second))
system.mem_ctrl.dram.avgWrBW               126.182055                       # Average DRAM write bandwidth in MiBytes/s ((Byte/Second))
system.mem_ctrl.dram.peakBW                  12800.00                       # Theoretical peak bandwidth in MiByte/s ((Byte/Second))
system.mem_ctrl.dram.busUtil                     3.08                       # Data bus utilization in percentage (Ratio)
system.mem_ctrl.dram.busUtilRead                 2.09                       # Data bus utilization in percentage for reads (Ratio)
system.mem_ctrl.dram.busUtilWrite                0.99                       # Data bus utilization in percentage for writes (Ratio)
system.mem_ctrl.dram.pageHitRate                78.85                       # Row buffer hit rate, read and write combined (Ratio)
system.mem_ctrl.dram.power_state.pwrStateResidencyTicks::UNDEFINED   3161907617                       # Cumulative time (in ticks) in various power states (Tick)
system.mem_ctrl.dram.rank0.actEnergy         14494200                       # Energy for activate commands per rank (pJ) (Joule)
system.mem_ctrl.dram.rank0.preEnergy          7707645                       # Energy for precharge commands per rank (pJ) (Joule)
system.mem_ctrl.dram.rank0.readEnergy        46017300                       # Energy for read commands per rank (pJ) (Joule)
system.mem_ctrl.dram.rank0.writeEnergy       15247620                       # Energy for write commands per rank (pJ) (Joule)
system.mem_ctrl.dram.rank0.refreshEnergy 249543840.000000                       # Energy for refresh commands per rank (pJ) (Joule)
system.mem_ctrl.dram.rank0.actBackEnergy   1035358260                       # Energy for active background per rank (pJ) (Joule)
system.mem_ctrl.dram.rank0.preBackEnergy    342291840                       # Energy for precharge background per rank (pJ) (Joule)
system.mem_ctrl.dram.rank0.actPowerDownEnergy            0                       # Energy for active power-down per rank (pJ) (Joule)
system.mem_ctrl.dram.rank0.prePowerDownEnergy            0                       # Energy for precharge power-down per rank (pJ) (Joule)
system.mem_ctrl.dram.rank0.selfRefreshEnergy            0                       # Energy for self refresh per rank (pJ) (Joule)
system.mem_ctrl.dram.rank0.totalEnergy     1710660705                       # Total energy per rank (pJ) (Joule)
system.mem_ctrl.dram.rank0.averagePower    541.021722                       # Core power per rank (mW) (Watt)
system.mem_ctrl.dram.rank0.totalIdleTime            0                       # Total Idle time Per DRAM Rank (Tick)
system.mem_ctrl.dram.rank0.pwrStateTime::IDLE    880304343                       # Time in different power states (Tick)
system.mem_ctrl.dram.rank0.pwrStateTime::REF    105560000                       # Time in different power states (Tick)
system.mem_ctrl.dram.rank0.pwrStateTime::SREF            0                       # Time in different power states (Tick)
system.mem_ctrl.dram.rank0.pwrStateTime::PRE_PDN            0                       # Time in different power states (Tick)
system.mem_ctrl.dram.rank0.pwrStateTime::ACT   2176043274                       # Time in different power states (Tick)
system.mem_ctrl.dram.rank0.pwrStateTime::ACT_PDN            0                       # Time in different power states (Tick)
system.mem_ctrl.dram.rank1.actEnergy         14908320                       # Energy for activate commands per rank (pJ) (Joule)
system.mem_ctrl.dram.rank1.preEnergy          7931550                       # Energy for precharge commands per rank (pJ) (Joule)
system.mem_ctrl.dram.rank1.readEnergy        48509160                       # Energy for read commands per rank (pJ) (Joule)
system.mem_ctrl.dram.rank1.writeEnergy       17293860                       # Energy for write commands per rank (pJ) (Joule)
system.mem_ctrl.dram.rank1.refreshEnergy 249543840.000000                       # Energy for refresh commands per rank (pJ) (Joule)
system.mem_ctrl.dram.rank1.actBackEnergy   1075579740                       # Energy for active background per rank (pJ) (Joule)
system.mem_ctrl.dram.rank1.preBackEnergy    308421120                       # Energy for precharge background per rank (pJ) (Joule)
system.mem_ctrl.dram.rank1.actPowerDownEnergy            0                       # Energy for active power-down per rank (pJ) (Joule)
system.mem_ctrl.dram.rank1.prePowerDownEnergy            0                       # Energy for precharge power-down per rank (pJ) (Joule)
system.mem_ctrl.dram.rank1.selfRefreshEnergy            0                       # Energy for self refresh per rank (pJ) (Joule)
system.mem_ctrl.dram.rank1.totalEnergy     1722187590                       # Total energy per rank (pJ) (Joule)
system.mem_ctrl.dram.rank1.averagePower    544.667270                       # Core power per rank (mW) (Watt)
system.mem_ctrl.dram.rank1.totalIdleTime            0                       # Total Idle time Per DRAM Rank (Tick)
system.mem_ctrl.dram.rank1.pwrStateTime::IDLE    792127084                       # Time in different power states (Tick)
system.mem_ctrl.dram.rank1.pwrStateTime::REF    105560000                       # Time in different power states (Tick)
system.mem_ctrl.dram.rank1.pwrStateTime::SREF            0                       # Time in different power states (Tick)
system.mem_ctrl.dram.rank1.pwrStateTime::PRE_PDN            0                       # Time in different power states (Tick)
system.mem_ctrl.dram.rank1.pwrStateTime::ACT   2264220533                       # Time in different power states (Tick)
system.mem_ctrl.dram.rank1.pwrStateTime::ACT_PDN            0                       # Time in different power states (Tick)
system.mem_ctrl.power_state.pwrStateResidencyTicks::UNDEFINED   3161907617                       # Cumulative time (in ticks) in various power states (Tick)
system.membus.transDist::ReadResp                7672                       # Transaction distribution (Count)
system.membus.transDist::WritebackDirty          6510                       # Transaction distribution (Count)
system.membus.transDist::CleanEvict              7206                       # Transaction distribution (Count)
system.membus.transDist::UpgradeReq                 1                       # Transaction distribution (Count)
system.membus.transDist::ReadExReq               6045                       # Transaction distribution (Count)
system.membus.transDist::ReadExResp              6045                       # Transaction distribution (Count)
system.membus.transDist::ReadSharedReq           7669                       # Transaction distribution (Count)
system.membus.pktCount_system.cpu.l1d.mem_side_port::system.mem_ctrl.port        26340                       # Packet count per connected requestor and responder (Count)
system.membus.pktCount_system.cpu.l1d.mem_side_port::total        26340                       # Packet count per connected requestor and responder (Count)
system.membus.pktCount_system.cpu.l1i.mem_side_port::system.mem_ctrl.port        14807                       # Packet count per connected requestor and responder (Count)
system.membus.pktCount_system.cpu.l1i.mem_side_port::total        14807                       # Packet count per connected requestor and responder (Count)
system.membus.pktCount::total                   41147                       # Packet count per connected requestor and responder (Count)
system.membus.pktSize_system.cpu.l1d.mem_side_port::system.mem_ctrl.port       978560                       # Cumulative packet size per connected requestor and responder (Byte)
system.membus.pktSize_system.cpu.l1d.mem_side_port::total       978560                       # Cumulative packet size per connected requestor and responder (Byte)
system.membus.pktSize_system.cpu.l1i.mem_side_port::system.mem_ctrl.port       315904                       # Cumulative packet size per connected requestor and responder (Byte)
system.membus.pktSize_system.cpu.l1i.mem_side_port::total       315904                       # Cumulative packet size per connected requestor and responder (Byte)
system.membus.pktSize::total                  1294464                       # Cumulative packet size per connected requestor and responder (Byte)
system.membus.snoops                                1                       # Total snoops (Count)
system.membus.snoopTraffic                         64                       # Total snoop traffic (Byte)
system.membus.snoopFanout::samples              13715                       # Request fanout histogram (Count)
system.membus.snoopFanout::mean              0.002114                       # Request fanout histogram (Count)
system.membus.snoopFanout::stdev             0.045936                       # Request fanout histogram (Count)
system.membus.snoopFanout::underflows               0      0.00%      0.00% # Request fanout histogram (Count)
system.membus.snoopFanout::0                    13686     99.79%     99.79% # Request fanout histogram (Count)
system.membus.snoopFanout::1                       29      0.21%    100.00% # Request fanout histogram (Count)
system.membus.snoopFanout::2                        0      0.00%    100.00% # Request fanout histogram (Count)
system.membus.snoopFanout::overflows                0      0.00%    100.00% # Request fanout histogram (Count)
system.membus.snoopFanout::min_value                0                       # Request fanout histogram (Count)
system.membus.snoopFanout::max_value                1                       # Request fanout histogram (Count)
system.membus.snoopFanout::total                13715                       # Request fanout histogram (Count)
system.membus.power_state.pwrStateResidencyTicks::UNDEFINED   3161907617                       # Cumulative time (in ticks) in various power states (Tick)
system.membus.reqLayer2.occupancy           712928843                       # Layer occupancy (ticks) (Tick)
system.membus.reqLayer2.utilization               0.2                       # Layer utilization (Ratio)
system.membus.respLayer2.occupancy          598631331                       # Layer occupancy (ticks) (Tick)
system.membus.respLayer2.utilization              0.2                       # Layer utilization (Ratio)
system.membus.respLayer3.occupancy          336659346                       # Layer occupancy (ticks) (Tick)
system.membus.respLayer3.utilization              0.1                       # Layer utilization (Ratio)
system.membus.snoop_filter.totRequests          27431                       # Total number of requests made to the snoop filter. (Count)
system.membus.snoop_filter.hitSingleRequests        13717                       # Number of requests hitting in the snoop filter with a single holder of the requested data. (Count)
system.membus.snoop_filter.hitMultiRequests           28                       # Number of requests hitting in the snoop filter with multiple (>1) holders of the requested data. (Count)
system.membus.snoop_filter.totSnoops                0                       # Total number of snoops made to the snoop filter. (Count)
system.membus.snoop_filter.hitSingleSnoops            0                       # Number of snoops hitting in the snoop filter with a single holder of the requested data. (Count)
system.membus.snoop_filter.hitMultiSnoops            0                       # Number of snoops hitting in the snoop filter with multiple (>1) holders of the requested data. (Count)
system.workload.inst.arm                            0                       # number of arm instructions executed (Count)
system.workload.inst.quiesce                        0                       # number of quiesce instructions executed (Count)

---------- End Simulation Statistics   ----------
