
---------- Begin Simulation Statistics ----------
simSeconds                                   2.004767                       # Number of seconds simulated (Second)
simTicks                                 2004767119569                       # Number of ticks simulated (Tick)
finalTick                                2004767119569                       # Number of ticks from beginning of simulation (restored from checkpoints and never reset) (Tick)
simFreq                                  1000000000000                       # The number of ticks per simulated second ((Tick/Second))
hostSeconds                                    890.91                       # Real time elapsed on the host (Second)
hostTickRate                               2250243016                       # The number of ticks simulated per host second (ticks/s) ((Tick/Second))
hostMemory                                    8671532                       # Number of bytes of host memory used (Byte)
simInsts                                    169182811                       # Number of instructions simulated (Count)
simOps                                      310149561                       # Number of ops (including micro ops) simulated (Count)
hostInstRate                                   189899                       # Simulator instruction rate (inst/s) ((Count/Second))
hostOpRate                                     348126                       # Simulator op (including micro ops) rate (op/s) ((Count/Second))
system.clk_domain.clock                         13333                       # Clock period in ticks (Tick)
system.clk_domain.voltage_domain.voltage            1                       # Voltage in Volts (Volt)
system.cpu.numCycles                        150361294                       # Number of cpu cycles simulated (Cycle)
system.cpu.cpi                               0.888750                       # CPI: cycles per instruction (core level) ((Cycle/Count))
system.cpu.ipc                               1.125175                       # IPC: instructions per cycle (core level) ((Count/Cycle))
system.cpu.numWorkItemsStarted                      0                       # Number of work items this cpu started (Count)
system.cpu.numWorkItemsCompleted                    0                       # Number of work items this cpu completed (Count)
system.cpu.instsAdded                       430672180                       # Number of instructions added to the IQ (excludes non-spec) (Count)
system.cpu.nonSpecInstsAdded                  1121679                       # Number of non-speculative instructions added to the IQ (Count)
system.cpu.instsIssued                      386485339                       # Number of instructions issued (Count)
system.cpu.squashedInstsIssued                1984142                       # Number of squashed instructions issued (Count)
system.cpu.squashedInstsExamined            121644287                       # Number of squashed instructions iterated over during squash; mainly for profiling (Count)
system.cpu.squashedOperandsExamined         247902270                       # Number of squashed operands that are examined and possibly removed from graph (Count)
system.cpu.squashedNonSpecRemoved              433356                       # Number of squashed non-spec instructions that were removed (Count)
system.cpu.numIssuedDist::samples           149691378                       # Number of insts issued each cycle (Count)
system.cpu.numIssuedDist::mean               2.581881                       # Number of insts issued each cycle (Count)
system.cpu.numIssuedDist::stdev              2.757595                       # Number of insts issued each cycle (Count)
system.cpu.numIssuedDist::underflows                0      0.00%      0.00% # Number of insts issued each cycle (Count)
system.cpu.numIssuedDist::0                  60623896     40.50%     40.50% # Number of insts issued each cycle (Count)
system.cpu.numIssuedDist::1                  14241263      9.51%     50.01% # Number of insts issued each cycle (Count)
system.cpu.numIssuedDist::2                  10130954      6.77%     56.78% # Number of insts issued each cycle (Count)
system.cpu.numIssuedDist::3                  10472007      7.00%     63.78% # Number of insts issued each cycle (Count)
system.cpu.numIssuedDist::4                  10592636      7.08%     70.85% # Number of insts issued each cycle (Count)
system.cpu.numIssuedDist::5                   9640653      6.44%     77.29% # Number of insts issued each cycle (Count)
system.cpu.numIssuedDist::6                  15101535     10.09%     87.38% # Number of insts issued each cycle (Count)
system.cpu.numIssuedDist::7                  11724344      7.83%     95.21% # Number of insts issued each cycle (Count)
system.cpu.numIssuedDist::8                   7164090      4.79%    100.00% # Number of insts issued each cycle (Count)
system.cpu.numIssuedDist::overflows                 0      0.00%    100.00% # Number of insts issued each cycle (Count)
system.cpu.numIssuedDist::min_value                 0                       # Number of insts issued each cycle (Count)
system.cpu.numIssuedDist::max_value                 8                       # Number of insts issued each cycle (Count)
system.cpu.numIssuedDist::total             149691378                       # Number of insts issued each cycle (Count)
system.cpu.statFuBusy::No_OpClass                   0      0.00%      0.00% # attempts to use FU when none available (Count)
system.cpu.statFuBusy::IntAlu                10736922     78.99%     78.99% # attempts to use FU when none available (Count)
system.cpu.statFuBusy::IntMult                      0      0.00%     78.99% # attempts to use FU when none available (Count)
system.cpu.statFuBusy::IntDiv                       0      0.00%     78.99% # attempts to use FU when none available (Count)
system.cpu.statFuBusy::FloatAdd                     1      0.00%     78.99% # attempts to use FU when none available (Count)
system.cpu.statFuBusy::FloatCmp                     0      0.00%     78.99% # attempts to use FU when none available (Count)
system.cpu.statFuBusy::FloatCvt                     0      0.00%     78.99% # attempts to use FU when none available (Count)
system.cpu.statFuBusy::FloatMult                    0      0.00%     78.99% # attempts to use FU when none available (Count)
system.cpu.statFuBusy::FloatMultAcc                 0      0.00%     78.99% # attempts to use FU when none available (Count)
system.cpu.statFuBusy::FloatDiv                     0      0.00%     78.99% # attempts to use FU when none available (Count)
system.cpu.statFuBusy::FloatMisc                    0      0.00%     78.99% # attempts to use FU when none available (Count)
system.cpu.statFuBusy::FloatSqrt                    0      0.00%     78.99% # attempts to use FU when none available (Count)
system.cpu.statFuBusy::SimdAdd                     17      0.00%     78.99% # attempts to use FU when none available (Count)
system.cpu.statFuBusy::SimdAddAcc                   0      0.00%     78.99% # attempts to use FU when none available (Count)
system.cpu.statFuBusy::SimdAlu                  32912      0.24%     79.24% # attempts to use FU when none available (Count)
system.cpu.statFuBusy::SimdCmp                      1      0.00%     79.24% # attempts to use FU when none available (Count)
system.cpu.statFuBusy::SimdCvt                    246      0.00%     79.24% # attempts to use FU when none available (Count)
system.cpu.statFuBusy::SimdMisc                    41      0.00%     79.24% # attempts to use FU when none available (Count)
system.cpu.statFuBusy::SimdMult                     0      0.00%     79.24% # attempts to use FU when none available (Count)
system.cpu.statFuBusy::SimdMultAcc                  0      0.00%     79.24% # attempts to use FU when none available (Count)
system.cpu.statFuBusy::SimdMatMultAcc               0      0.00%     79.24% # attempts to use FU when none available (Count)
system.cpu.statFuBusy::SimdShift                   32      0.00%     79.24% # attempts to use FU when none available (Count)
system.cpu.statFuBusy::SimdShiftAcc                 0      0.00%     79.24% # attempts to use FU when none available (Count)
system.cpu.statFuBusy::SimdDiv                      0      0.00%     79.24% # attempts to use FU when none available (Count)
system.cpu.statFuBusy::SimdSqrt                     0      0.00%     79.24% # attempts to use FU when none available (Count)
system.cpu.statFuBusy::SimdFloatAdd                 0      0.00%     79.24% # attempts to use FU when none available (Count)
system.cpu.statFuBusy::SimdFloatAlu                 0      0.00%     79.24% # attempts to use FU when none available (Count)
system.cpu.statFuBusy::SimdFloatCmp                 0      0.00%     79.24% # attempts to use FU when none available (Count)
system.cpu.statFuBusy::SimdFloatCvt               707      0.01%     79.24% # attempts to use FU when none available (Count)
system.cpu.statFuBusy::SimdFloatDiv                 0      0.00%     79.24% # attempts to use FU when none available (Count)
system.cpu.statFuBusy::SimdFloatMisc                0      0.00%     79.24% # attempts to use FU when none available (Count)
system.cpu.statFuBusy::SimdFloatMult                0      0.00%     79.24% # attempts to use FU when none available (Count)
system.cpu.statFuBusy::SimdFloatMultAcc             0      0.00%     79.24% # attempts to use FU when none available (Count)
system.cpu.statFuBusy::SimdFloatMatMultAcc            0      0.00%     79.24% # attempts to use FU when none available (Count)
system.cpu.statFuBusy::SimdFloatSqrt                0      0.00%     79.24% # attempts to use FU when none available (Count)
system.cpu.statFuBusy::SimdReduceAdd                0      0.00%     79.24% # attempts to use FU when none available (Count)
system.cpu.statFuBusy::SimdReduceAlu                0      0.00%     79.24% # attempts to use FU when none available (Count)
system.cpu.statFuBusy::SimdReduceCmp                0      0.00%     79.24% # attempts to use FU when none available (Count)
system.cpu.statFuBusy::SimdFloatReduceAdd            0      0.00%     79.24% # attempts to use FU when none available (Count)
system.cpu.statFuBusy::SimdFloatReduceCmp            0      0.00%     79.24% # attempts to use FU when none available (Count)
system.cpu.statFuBusy::SimdAes                      0      0.00%     79.24% # attempts to use FU when none available (Count)
system.cpu.statFuBusy::SimdAesMix                   0      0.00%     79.24% # attempts to use FU when none available (Count)
system.cpu.statFuBusy::SimdSha1Hash                 0      0.00%     79.24% # attempts to use FU when none available (Count)
system.cpu.statFuBusy::SimdSha1Hash2                0      0.00%     79.24% # attempts to use FU when none available (Count)
system.cpu.statFuBusy::SimdSha256Hash               0      0.00%     79.24% # attempts to use FU when none available (Count)
system.cpu.statFuBusy::SimdSha256Hash2              0      0.00%     79.24% # attempts to use FU when none available (Count)
system.cpu.statFuBusy::SimdShaSigma2                0      0.00%     79.24% # attempts to use FU when none available (Count)
system.cpu.statFuBusy::SimdShaSigma3                0      0.00%     79.24% # attempts to use FU when none available (Count)
system.cpu.statFuBusy::SimdPredAlu                  0      0.00%     79.24% # attempts to use FU when none available (Count)
system.cpu.statFuBusy::Matrix                       0      0.00%     79.24% # attempts to use FU when none available (Count)
system.cpu.statFuBusy::MatrixMov                    0      0.00%     79.24% # attempts to use FU when none available (Count)
system.cpu.statFuBusy::MatrixOP                     0      0.00%     79.24% # attempts to use FU when none available (Count)
system.cpu.statFuBusy::MemRead                1279038      9.41%     88.65% # attempts to use FU when none available (Count)
system.cpu.statFuBusy::MemWrite               1081245      7.95%     96.61% # attempts to use FU when none available (Count)
system.cpu.statFuBusy::FloatMemRead            244826      1.80%     98.41% # attempts to use FU when none available (Count)
system.cpu.statFuBusy::FloatMemWrite           216128      1.59%    100.00% # attempts to use FU when none available (Count)
system.cpu.statFuBusy::IprAccess                    0      0.00%    100.00% # attempts to use FU when none available (Count)
system.cpu.statFuBusy::InstPrefetch                 0      0.00%    100.00% # attempts to use FU when none available (Count)
system.cpu.statFuBusy::SimdUnitStrideLoad            0      0.00%    100.00% # attempts to use FU when none available (Count)
system.cpu.statFuBusy::SimdUnitStrideStore            0      0.00%    100.00% # attempts to use FU when none available (Count)
system.cpu.statFuBusy::SimdUnitStrideMaskLoad            0      0.00%    100.00% # attempts to use FU when none available (Count)
system.cpu.statFuBusy::SimdUnitStrideMaskStore            0      0.00%    100.00% # attempts to use FU when none available (Count)
system.cpu.statFuBusy::SimdStridedLoad              0      0.00%    100.00% # attempts to use FU when none available (Count)
system.cpu.statFuBusy::SimdStridedStore             0      0.00%    100.00% # attempts to use FU when none available (Count)
system.cpu.statFuBusy::SimdIndexedLoad              0      0.00%    100.00% # attempts to use FU when none available (Count)
system.cpu.statFuBusy::SimdIndexedStore             0      0.00%    100.00% # attempts to use FU when none available (Count)
system.cpu.statFuBusy::SimdWholeRegisterLoad            0      0.00%    100.00% # attempts to use FU when none available (Count)
system.cpu.statFuBusy::SimdWholeRegisterStore            0      0.00%    100.00% # attempts to use FU when none available (Count)
system.cpu.statFuBusy::SimdUnitStrideFaultOnlyFirstLoad            0      0.00%    100.00% # attempts to use FU when none available (Count)
system.cpu.statFuBusy::SimdUnitStrideSegmentedLoad            0      0.00%    100.00% # attempts to use FU when none available (Count)
system.cpu.statFuBusy::SimdUnitStrideSegmentedStore            0      0.00%    100.00% # attempts to use FU when none available (Count)
system.cpu.statFuBusy::SimdExt                      0      0.00%    100.00% # attempts to use FU when none available (Count)
system.cpu.statFuBusy::SimdFloatExt                 0      0.00%    100.00% # attempts to use FU when none available (Count)
system.cpu.statFuBusy::SimdConfig                   0      0.00%    100.00% # attempts to use FU when none available (Count)
system.cpu.statIssuedInstType_0::No_OpClass      1725981      0.45%      0.45% # Number of instructions issued per FU type, per thread (Count)
system.cpu.statIssuedInstType_0::IntAlu     289518273     74.91%     75.36% # Number of instructions issued per FU type, per thread (Count)
system.cpu.statIssuedInstType_0::IntMult       542582      0.14%     75.50% # Number of instructions issued per FU type, per thread (Count)
system.cpu.statIssuedInstType_0::IntDiv       2197336      0.57%     76.07% # Number of instructions issued per FU type, per thread (Count)
system.cpu.statIssuedInstType_0::FloatAdd     11898603      3.08%     79.14% # Number of instructions issued per FU type, per thread (Count)
system.cpu.statIssuedInstType_0::FloatCmp            0      0.00%     79.14% # Number of instructions issued per FU type, per thread (Count)
system.cpu.statIssuedInstType_0::FloatCvt         1854      0.00%     79.15% # Number of instructions issued per FU type, per thread (Count)
system.cpu.statIssuedInstType_0::FloatMult            0      0.00%     79.15% # Number of instructions issued per FU type, per thread (Count)
system.cpu.statIssuedInstType_0::FloatMultAcc            0      0.00%     79.15% # Number of instructions issued per FU type, per thread (Count)
system.cpu.statIssuedInstType_0::FloatDiv            0      0.00%     79.15% # Number of instructions issued per FU type, per thread (Count)
system.cpu.statIssuedInstType_0::FloatMisc            0      0.00%     79.15% # Number of instructions issued per FU type, per thread (Count)
system.cpu.statIssuedInstType_0::FloatSqrt            0      0.00%     79.15% # Number of instructions issued per FU type, per thread (Count)
system.cpu.statIssuedInstType_0::SimdAdd         7848      0.00%     79.15% # Number of instructions issued per FU type, per thread (Count)
system.cpu.statIssuedInstType_0::SimdAddAcc            0      0.00%     79.15% # Number of instructions issued per FU type, per thread (Count)
system.cpu.statIssuedInstType_0::SimdAlu       281721      0.07%     79.22% # Number of instructions issued per FU type, per thread (Count)
system.cpu.statIssuedInstType_0::SimdCmp           29      0.00%     79.22% # Number of instructions issued per FU type, per thread (Count)
system.cpu.statIssuedInstType_0::SimdCvt        82935      0.02%     79.24% # Number of instructions issued per FU type, per thread (Count)
system.cpu.statIssuedInstType_0::SimdMisc       132624      0.03%     79.28% # Number of instructions issued per FU type, per thread (Count)
system.cpu.statIssuedInstType_0::SimdMult            0      0.00%     79.28% # Number of instructions issued per FU type, per thread (Count)
system.cpu.statIssuedInstType_0::SimdMultAcc            0      0.00%     79.28% # Number of instructions issued per FU type, per thread (Count)
system.cpu.statIssuedInstType_0::SimdMatMultAcc            0      0.00%     79.28% # Number of instructions issued per FU type, per thread (Count)
system.cpu.statIssuedInstType_0::SimdShift         4159      0.00%     79.28% # Number of instructions issued per FU type, per thread (Count)
system.cpu.statIssuedInstType_0::SimdShiftAcc            0      0.00%     79.28% # Number of instructions issued per FU type, per thread (Count)
system.cpu.statIssuedInstType_0::SimdDiv            0      0.00%     79.28% # Number of instructions issued per FU type, per thread (Count)
system.cpu.statIssuedInstType_0::SimdSqrt            0      0.00%     79.28% # Number of instructions issued per FU type, per thread (Count)
system.cpu.statIssuedInstType_0::SimdFloatAdd        32835      0.01%     79.29% # Number of instructions issued per FU type, per thread (Count)
system.cpu.statIssuedInstType_0::SimdFloatAlu            0      0.00%     79.29% # Number of instructions issued per FU type, per thread (Count)
system.cpu.statIssuedInstType_0::SimdFloatCmp            0      0.00%     79.29% # Number of instructions issued per FU type, per thread (Count)
system.cpu.statIssuedInstType_0::SimdFloatCvt      3617251      0.94%     80.22% # Number of instructions issued per FU type, per thread (Count)
system.cpu.statIssuedInstType_0::SimdFloatDiv          234      0.00%     80.22% # Number of instructions issued per FU type, per thread (Count)
system.cpu.statIssuedInstType_0::SimdFloatMisc            0      0.00%     80.22% # Number of instructions issued per FU type, per thread (Count)
system.cpu.statIssuedInstType_0::SimdFloatMult            0      0.00%     80.22% # Number of instructions issued per FU type, per thread (Count)
system.cpu.statIssuedInstType_0::SimdFloatMultAcc            0      0.00%     80.22% # Number of instructions issued per FU type, per thread (Count)
system.cpu.statIssuedInstType_0::SimdFloatMatMultAcc            0      0.00%     80.22% # Number of instructions issued per FU type, per thread (Count)
system.cpu.statIssuedInstType_0::SimdFloatSqrt            9      0.00%     80.22% # Number of instructions issued per FU type, per thread (Count)
system.cpu.statIssuedInstType_0::SimdReduceAdd            0      0.00%     80.22% # Number of instructions issued per FU type, per thread (Count)
system.cpu.statIssuedInstType_0::SimdReduceAlu            0      0.00%     80.22% # Number of instructions issued per FU type, per thread (Count)
system.cpu.statIssuedInstType_0::SimdReduceCmp            0      0.00%     80.22% # Number of instructions issued per FU type, per thread (Count)
system.cpu.statIssuedInstType_0::SimdFloatReduceAdd            0      0.00%     80.22% # Number of instructions issued per FU type, per thread (Count)
system.cpu.statIssuedInstType_0::SimdFloatReduceCmp            0      0.00%     80.22% # Number of instructions issued per FU type, per thread (Count)
system.cpu.statIssuedInstType_0::SimdAes            0      0.00%     80.22% # Number of instructions issued per FU type, per thread (Count)
system.cpu.statIssuedInstType_0::SimdAesMix            0      0.00%     80.22% # Number of instructions issued per FU type, per thread (Count)
system.cpu.statIssuedInstType_0::SimdSha1Hash            0      0.00%     80.22% # Number of instructions issued per FU type, per thread (Count)
system.cpu.statIssuedInstType_0::SimdSha1Hash2            0      0.00%     80.22% # Number of instructions issued per FU type, per thread (Count)
system.cpu.statIssuedInstType_0::SimdSha256Hash            0      0.00%     80.22% # Number of instructions issued per FU type, per thread (Count)
system.cpu.statIssuedInstType_0::SimdSha256Hash2            0      0.00%     80.22% # Number of instructions issued per FU type, per thread (Count)
system.cpu.statIssuedInstType_0::SimdShaSigma2            0      0.00%     80.22% # Number of instructions issued per FU type, per thread (Count)
system.cpu.statIssuedInstType_0::SimdShaSigma3            0      0.00%     80.22% # Number of instructions issued per FU type, per thread (Count)
system.cpu.statIssuedInstType_0::SimdPredAlu            0      0.00%     80.22% # Number of instructions issued per FU type, per thread (Count)
system.cpu.statIssuedInstType_0::Matrix             0      0.00%     80.22% # Number of instructions issued per FU type, per thread (Count)
system.cpu.statIssuedInstType_0::MatrixMov            0      0.00%     80.22% # Number of instructions issued per FU type, per thread (Count)
system.cpu.statIssuedInstType_0::MatrixOP            0      0.00%     80.22% # Number of instructions issued per FU type, per thread (Count)
system.cpu.statIssuedInstType_0::MemRead     49212258     12.73%     92.95% # Number of instructions issued per FU type, per thread (Count)
system.cpu.statIssuedInstType_0::MemWrite     15747532      4.07%     97.03% # Number of instructions issued per FU type, per thread (Count)
system.cpu.statIssuedInstType_0::FloatMemRead      7851846      2.03%     99.06% # Number of instructions issued per FU type, per thread (Count)
system.cpu.statIssuedInstType_0::FloatMemWrite      3629429      0.94%    100.00% # Number of instructions issued per FU type, per thread (Count)
system.cpu.statIssuedInstType_0::IprAccess            0      0.00%    100.00% # Number of instructions issued per FU type, per thread (Count)
system.cpu.statIssuedInstType_0::InstPrefetch            0      0.00%    100.00% # Number of instructions issued per FU type, per thread (Count)
system.cpu.statIssuedInstType_0::SimdUnitStrideLoad            0      0.00%    100.00% # Number of instructions issued per FU type, per thread (Count)
system.cpu.statIssuedInstType_0::SimdUnitStrideStore            0      0.00%    100.00% # Number of instructions issued per FU type, per thread (Count)
system.cpu.statIssuedInstType_0::SimdUnitStrideMaskLoad            0      0.00%    100.00% # Number of instructions issued per FU type, per thread (Count)
system.cpu.statIssuedInstType_0::SimdUnitStrideMaskStore            0      0.00%    100.00% # Number of instructions issued per FU type, per thread (Count)
system.cpu.statIssuedInstType_0::SimdStridedLoad            0      0.00%    100.00% # Number of instructions issued per FU type, per thread (Count)
system.cpu.statIssuedInstType_0::SimdStridedStore            0      0.00%    100.00% # Number of instructions issued per FU type, per thread (Count)
system.cpu.statIssuedInstType_0::SimdIndexedLoad            0      0.00%    100.00% # Number of instructions issued per FU type, per thread (Count)
system.cpu.statIssuedInstType_0::SimdIndexedStore            0      0.00%    100.00% # Number of instructions issued per FU type, per thread (Count)
system.cpu.statIssuedInstType_0::SimdWholeRegisterLoad            0      0.00%    100.00% # Number of instructions issued per FU type, per thread (Count)
system.cpu.statIssuedInstType_0::SimdWholeRegisterStore            0      0.00%    100.00% # Number of instructions issued per FU type, per thread (Count)
system.cpu.statIssuedInstType_0::SimdUnitStrideFaultOnlyFirstLoad            0      0.00%    100.00% # Number of instructions issued per FU type, per thread (Count)
system.cpu.statIssuedInstType_0::SimdUnitStrideSegmentedLoad            0      0.00%    100.00% # Number of instructions issued per FU type, per thread (Count)
system.cpu.statIssuedInstType_0::SimdUnitStrideSegmentedStore            0      0.00%    100.00% # Number of instructions issued per FU type, per thread (Count)
system.cpu.statIssuedInstType_0::SimdExt            0      0.00%    100.00% # Number of instructions issued per FU type, per thread (Count)
system.cpu.statIssuedInstType_0::SimdFloatExt            0      0.00%    100.00% # Number of instructions issued per FU type, per thread (Count)
system.cpu.statIssuedInstType_0::SimdConfig            0      0.00%    100.00% # Number of instructions issued per FU type, per thread (Count)
system.cpu.statIssuedInstType_0::total      386485339                       # Number of instructions issued per FU type, per thread (Count)
system.cpu.issueRate                         2.570378                       # Inst issue rate ((Count/Cycle))
system.cpu.fuBusy                            13592116                       # FU busy when requested (Count)
system.cpu.fuBusyRate                        0.035169                       # FU busy rate (busy events/executed inst) ((Count/Count))
system.cpu.intInstQueueReads                882431679                       # Number of integer instruction queue reads (Count)
system.cpu.intInstQueueWrites               506606129                       # Number of integer instruction queue writes (Count)
system.cpu.intInstQueueWakeupAccesses       352655910                       # Number of integer instruction queue wakeup accesses (Count)
system.cpu.fpInstQueueReads                  55806635                       # Number of floating instruction queue reads (Count)
system.cpu.fpInstQueueWrites                 46974697                       # Number of floating instruction queue writes (Count)
system.cpu.fpInstQueueWakeupAccesses         25217176                       # Number of floating instruction queue wakeup accesses (Count)
system.cpu.vecInstQueueReads                        0                       # Number of vector instruction queue reads (Count)
system.cpu.vecInstQueueWrites                       0                       # Number of vector instruction queue writes (Count)
system.cpu.vecInstQueueWakeupAccesses               0                       # Number of vector instruction queue wakeup accesses (Count)
system.cpu.intAluAccesses                   370307126                       # Number of integer alu accesses (Count)
system.cpu.fpAluAccesses                     28044348                       # Number of floating point alu accesses (Count)
system.cpu.vecAluAccesses                           0                       # Number of vector alu accesses (Count)
system.cpu.numSquashedInsts                   5512997                       # Number of squashed instructions skipped in execute (Count)
system.cpu.numSwp                                   0                       # Number of swp insts executed (Count)
system.cpu.timesIdled                           89292                       # Number of times that the entire CPU went into an idle state and unscheduled itself (Count)
system.cpu.idleCycles                          669916                       # Total number of cycles that the CPU has spent unscheduled due to idling (Cycle)
system.cpu.MemDepUnit__0.insertedLoads       64024130                       # Number of loads inserted to the mem dependence unit. (Count)
system.cpu.MemDepUnit__0.insertedStores      23968850                       # Number of stores inserted to the mem dependence unit. (Count)
system.cpu.MemDepUnit__0.conflictingLoads     10688297                       # Number of conflicting loads. (Count)
system.cpu.MemDepUnit__0.conflictingStores      8093303                       # Number of conflicting stores. (Count)
system.cpu.MemDepUnit__1.insertedLoads              0                       # Number of loads inserted to the mem dependence unit. (Count)
system.cpu.MemDepUnit__1.insertedStores             0                       # Number of stores inserted to the mem dependence unit. (Count)
system.cpu.MemDepUnit__1.conflictingLoads            0                       # Number of conflicting loads. (Count)
system.cpu.MemDepUnit__1.conflictingStores            0                       # Number of conflicting stores. (Count)
system.cpu.MemDepUnit__2.insertedLoads              0                       # Number of loads inserted to the mem dependence unit. (Count)
system.cpu.MemDepUnit__2.insertedStores             0                       # Number of stores inserted to the mem dependence unit. (Count)
system.cpu.MemDepUnit__2.conflictingLoads            0                       # Number of conflicting loads. (Count)
system.cpu.MemDepUnit__2.conflictingStores            0                       # Number of conflicting stores. (Count)
system.cpu.MemDepUnit__3.insertedLoads              0                       # Number of loads inserted to the mem dependence unit. (Count)
system.cpu.MemDepUnit__3.insertedStores             0                       # Number of stores inserted to the mem dependence unit. (Count)
system.cpu.MemDepUnit__3.conflictingLoads            0                       # Number of conflicting loads. (Count)
system.cpu.MemDepUnit__3.conflictingStores            0                       # Number of conflicting stores. (Count)
system.cpu.branchPred.lookups_0::NoBranch         2234      0.00%      0.00% # Number of BP lookups (Count)
system.cpu.branchPred.lookups_0::Return       1358720      2.45%      2.46% # Number of BP lookups (Count)
system.cpu.branchPred.lookups_0::CallDirect      1391812      2.51%      4.97% # Number of BP lookups (Count)
system.cpu.branchPred.lookups_0::CallIndirect         2593      0.00%      4.97% # Number of BP lookups (Count)
system.cpu.branchPred.lookups_0::DirectCond     48538113     87.58%     92.55% # Number of BP lookups (Count)
system.cpu.branchPred.lookups_0::DirectUncond      3852829      6.95%     99.50% # Number of BP lookups (Count)
system.cpu.branchPred.lookups_0::IndirectCond            0      0.00%     99.50% # Number of BP lookups (Count)
system.cpu.branchPred.lookups_0::IndirectUncond       275799      0.50%    100.00% # Number of BP lookups (Count)
system.cpu.branchPred.lookups_0::total       55422100                       # Number of BP lookups (Count)
system.cpu.branchPred.squashes_0::NoBranch         1902      0.01%      0.01% # Number of branches that got squashed (completely removed) as an earlier branch was mispredicted. (Count)
system.cpu.branchPred.squashes_0::Return       427772      2.19%      2.20% # Number of branches that got squashed (completely removed) as an earlier branch was mispredicted. (Count)
system.cpu.branchPred.squashes_0::CallDirect       462436      2.37%      4.57% # Number of branches that got squashed (completely removed) as an earlier branch was mispredicted. (Count)
system.cpu.branchPred.squashes_0::CallIndirect         1016      0.01%      4.57% # Number of branches that got squashed (completely removed) as an earlier branch was mispredicted. (Count)
system.cpu.branchPred.squashes_0::DirectCond     17495670     89.61%     94.19% # Number of branches that got squashed (completely removed) as an earlier branch was mispredicted. (Count)
system.cpu.branchPred.squashes_0::DirectUncond      1122789      5.75%     99.94% # Number of branches that got squashed (completely removed) as an earlier branch was mispredicted. (Count)
system.cpu.branchPred.squashes_0::IndirectCond            0      0.00%     99.94% # Number of branches that got squashed (completely removed) as an earlier branch was mispredicted. (Count)
system.cpu.branchPred.squashes_0::IndirectUncond        12215      0.06%    100.00% # Number of branches that got squashed (completely removed) as an earlier branch was mispredicted. (Count)
system.cpu.branchPred.squashes_0::total      19523800                       # Number of branches that got squashed (completely removed) as an earlier branch was mispredicted. (Count)
system.cpu.branchPred.corrected_0::NoBranch          520      0.02%      0.02% # Number of branches that got corrected but not yet commited. Branches get corrected by decode or after execute. Also a branch misprediction can be detected out-of-order. Therefore, a corrected branch might not end up beeing committed in case an even earlier branch was mispredicted (Count)
system.cpu.branchPred.corrected_0::Return         3008      0.14%      0.17% # Number of branches that got corrected but not yet commited. Branches get corrected by decode or after execute. Also a branch misprediction can be detected out-of-order. Therefore, a corrected branch might not end up beeing committed in case an even earlier branch was mispredicted (Count)
system.cpu.branchPred.corrected_0::CallDirect         4102      0.19%      0.36% # Number of branches that got corrected but not yet commited. Branches get corrected by decode or after execute. Also a branch misprediction can be detected out-of-order. Therefore, a corrected branch might not end up beeing committed in case an even earlier branch was mispredicted (Count)
system.cpu.branchPred.corrected_0::CallIndirect          308      0.01%      0.37% # Number of branches that got corrected but not yet commited. Branches get corrected by decode or after execute. Also a branch misprediction can be detected out-of-order. Therefore, a corrected branch might not end up beeing committed in case an even earlier branch was mispredicted (Count)
system.cpu.branchPred.corrected_0::DirectCond      2039012     96.23%     96.61% # Number of branches that got corrected but not yet commited. Branches get corrected by decode or after execute. Also a branch misprediction can be detected out-of-order. Therefore, a corrected branch might not end up beeing committed in case an even earlier branch was mispredicted (Count)
system.cpu.branchPred.corrected_0::DirectUncond        69643      3.29%     99.90% # Number of branches that got corrected but not yet commited. Branches get corrected by decode or after execute. Also a branch misprediction can be detected out-of-order. Therefore, a corrected branch might not end up beeing committed in case an even earlier branch was mispredicted (Count)
system.cpu.branchPred.corrected_0::IndirectCond            0      0.00%     99.90% # Number of branches that got corrected but not yet commited. Branches get corrected by decode or after execute. Also a branch misprediction can be detected out-of-order. Therefore, a corrected branch might not end up beeing committed in case an even earlier branch was mispredicted (Count)
system.cpu.branchPred.corrected_0::IndirectUncond         2209      0.10%    100.00% # Number of branches that got corrected but not yet commited. Branches get corrected by decode or after execute. Also a branch misprediction can be detected out-of-order. Therefore, a corrected branch might not end up beeing committed in case an even earlier branch was mispredicted (Count)
system.cpu.branchPred.corrected_0::total      2118802                       # Number of branches that got corrected but not yet commited. Branches get corrected by decode or after execute. Also a branch misprediction can be detected out-of-order. Therefore, a corrected branch might not end up beeing committed in case an even earlier branch was mispredicted (Count)
system.cpu.branchPred.earlyResteers_0::NoBranch            0                       # Number of branches that got redirected after decode. (Count)
system.cpu.branchPred.earlyResteers_0::Return            0                       # Number of branches that got redirected after decode. (Count)
system.cpu.branchPred.earlyResteers_0::CallDirect            0                       # Number of branches that got redirected after decode. (Count)
system.cpu.branchPred.earlyResteers_0::CallIndirect            0                       # Number of branches that got redirected after decode. (Count)
system.cpu.branchPred.earlyResteers_0::DirectCond            0                       # Number of branches that got redirected after decode. (Count)
system.cpu.branchPred.earlyResteers_0::DirectUncond            0                       # Number of branches that got redirected after decode. (Count)
system.cpu.branchPred.earlyResteers_0::IndirectCond            0                       # Number of branches that got redirected after decode. (Count)
system.cpu.branchPred.earlyResteers_0::IndirectUncond            0                       # Number of branches that got redirected after decode. (Count)
system.cpu.branchPred.earlyResteers_0::total            0                       # Number of branches that got redirected after decode. (Count)
system.cpu.branchPred.committed_0::NoBranch          332      0.00%      0.00% # Number of branches finally committed  (Count)
system.cpu.branchPred.committed_0::Return       930947      2.59%      2.59% # Number of branches finally committed  (Count)
system.cpu.branchPred.committed_0::CallDirect       929375      2.59%      5.18% # Number of branches finally committed  (Count)
system.cpu.branchPred.committed_0::CallIndirect         1577      0.00%      5.19% # Number of branches finally committed  (Count)
system.cpu.branchPred.committed_0::DirectCond     31042443     86.47%     91.66% # Number of branches finally committed  (Count)
system.cpu.branchPred.committed_0::DirectUncond      2730040      7.60%     99.27% # Number of branches finally committed  (Count)
system.cpu.branchPred.committed_0::IndirectCond            0      0.00%     99.27% # Number of branches finally committed  (Count)
system.cpu.branchPred.committed_0::IndirectUncond       263584      0.73%    100.00% # Number of branches finally committed  (Count)
system.cpu.branchPred.committed_0::total     35898298                       # Number of branches finally committed  (Count)
system.cpu.branchPred.mispredicted_0::NoBranch          332      0.02%      0.02% # Number of committed branches that were mispredicted. (Count)
system.cpu.branchPred.mispredicted_0::Return         2994      0.16%      0.17% # Number of committed branches that were mispredicted. (Count)
system.cpu.branchPred.mispredicted_0::CallDirect         2262      0.12%      0.29% # Number of committed branches that were mispredicted. (Count)
system.cpu.branchPred.mispredicted_0::CallIndirect          277      0.01%      0.31% # Number of committed branches that were mispredicted. (Count)
system.cpu.branchPred.mispredicted_0::DirectCond      1890293     98.49%     98.79% # Number of committed branches that were mispredicted. (Count)
system.cpu.branchPred.mispredicted_0::DirectUncond        21057      1.10%     99.89% # Number of committed branches that were mispredicted. (Count)
system.cpu.branchPred.mispredicted_0::IndirectCond            0      0.00%     99.89% # Number of committed branches that were mispredicted. (Count)
system.cpu.branchPred.mispredicted_0::IndirectUncond         2074      0.11%    100.00% # Number of committed branches that were mispredicted. (Count)
system.cpu.branchPred.mispredicted_0::total      1919289                       # Number of committed branches that were mispredicted. (Count)
system.cpu.branchPred.targetProvider_0::NoTarget     23849866     43.03%     43.03% # The component providing the target for taken branches (Count)
system.cpu.branchPred.targetProvider_0::BTB     29946093     54.03%     97.07% # The component providing the target for taken branches (Count)
system.cpu.branchPred.targetProvider_0::RAS      1358719      2.45%     99.52% # The component providing the target for taken branches (Count)
system.cpu.branchPred.targetProvider_0::Indirect       267422      0.48%    100.00% # The component providing the target for taken branches (Count)
system.cpu.branchPred.targetProvider_0::total     55422100                       # The component providing the target for taken branches (Count)
system.cpu.branchPred.targetWrong_0::NoBranch       988545     47.90%     47.90% # Number of branches where the target was incorrect or not available at prediction time. (Count)
system.cpu.branchPred.targetWrong_0::Return      1071690     51.93%     99.83% # Number of branches where the target was incorrect or not available at prediction time. (Count)
system.cpu.branchPred.targetWrong_0::CallDirect         3008      0.15%     99.98% # Number of branches where the target was incorrect or not available at prediction time. (Count)
system.cpu.branchPred.targetWrong_0::CallIndirect          509      0.02%    100.00% # Number of branches where the target was incorrect or not available at prediction time. (Count)
system.cpu.branchPred.targetWrong_0::DirectCond            0      0.00%    100.00% # Number of branches where the target was incorrect or not available at prediction time. (Count)
system.cpu.branchPred.targetWrong_0::DirectUncond            0      0.00%    100.00% # Number of branches where the target was incorrect or not available at prediction time. (Count)
system.cpu.branchPred.targetWrong_0::IndirectCond            0      0.00%    100.00% # Number of branches where the target was incorrect or not available at prediction time. (Count)
system.cpu.branchPred.targetWrong_0::IndirectUncond            0      0.00%    100.00% # Number of branches where the target was incorrect or not available at prediction time. (Count)
system.cpu.branchPred.targetWrong_0::total      2063752                       # Number of branches where the target was incorrect or not available at prediction time. (Count)
system.cpu.branchPred.condPredicted          48540347                       # Number of conditional branches predicted (Count)
system.cpu.branchPred.condPredictedTaken     24740363                       # Number of conditional branches predicted as taken (Count)
system.cpu.branchPred.condIncorrect           2118802                       # Number of conditional branches incorrect (Count)
system.cpu.branchPred.predTakenBTBMiss           6901                       # Number of branches predicted taken but missed in BTB (Count)
system.cpu.branchPred.NotTakenMispredicted      1117088                       # Number branches predicted 'not taken' but turned out to be taken (Count)
system.cpu.branchPred.TakenMispredicted       1001714                       # Number branches predicted taken but are actually not taken (Count)
system.cpu.branchPred.BTBLookups             55422100                       # Number of BTB lookups (Count)
system.cpu.branchPred.BTBUpdates              1111043                       # Number of BTB updates (Count)
system.cpu.branchPred.BTBHits                44247528                       # Number of BTB hits (Count)
system.cpu.branchPred.BTBHitRatio            0.798373                       # BTB Hit Ratio (Ratio)
system.cpu.branchPred.BTBMispredicted            8274                       # Number BTB mispredictions. No target found or target wrong (Count)
system.cpu.branchPred.indirectLookups          278392                       # Number of indirect predictor lookups. (Count)
system.cpu.branchPred.indirectHits             267422                       # Number of indirect target hits. (Count)
system.cpu.branchPred.indirectMisses            10970                       # Number of indirect misses. (Count)
system.cpu.branchPred.indirectMispredicted            0                       # Number of mispredicted indirect branches. (Count)
system.cpu.branchPred.btb.lookups::NoBranch         2234      0.00%      0.00% # Number of BTB lookups (Count)
system.cpu.branchPred.btb.lookups::Return      1358720      2.45%      2.46% # Number of BTB lookups (Count)
system.cpu.branchPred.btb.lookups::CallDirect      1391812      2.51%      4.97% # Number of BTB lookups (Count)
system.cpu.branchPred.btb.lookups::CallIndirect         2593      0.00%      4.97% # Number of BTB lookups (Count)
system.cpu.branchPred.btb.lookups::DirectCond     48538113     87.58%     92.55% # Number of BTB lookups (Count)
system.cpu.branchPred.btb.lookups::DirectUncond      3852829      6.95%     99.50% # Number of BTB lookups (Count)
system.cpu.branchPred.btb.lookups::IndirectCond            0      0.00%     99.50% # Number of BTB lookups (Count)
system.cpu.branchPred.btb.lookups::IndirectUncond       275799      0.50%    100.00% # Number of BTB lookups (Count)
system.cpu.branchPred.btb.lookups::total     55422100                       # Number of BTB lookups (Count)
system.cpu.branchPred.btb.misses::NoBranch          363      0.00%      0.00% # Number of BTB misses (Count)
system.cpu.branchPred.btb.misses::Return      1358624     12.16%     12.16% # Number of BTB misses (Count)
system.cpu.branchPred.btb.misses::CallDirect         4764      0.04%     12.20% # Number of BTB misses (Count)
system.cpu.branchPred.btb.misses::CallIndirect         2593      0.02%     12.23% # Number of BTB misses (Count)
system.cpu.branchPred.btb.misses::DirectCond      9530194     85.28%     97.51% # Number of BTB misses (Count)
system.cpu.branchPred.btb.misses::DirectUncond         2235      0.02%     97.53% # Number of BTB misses (Count)
system.cpu.branchPred.btb.misses::IndirectCond            0      0.00%     97.53% # Number of BTB misses (Count)
system.cpu.branchPred.btb.misses::IndirectUncond       275799      2.47%    100.00% # Number of BTB misses (Count)
system.cpu.branchPred.btb.misses::total      11174572                       # Number of BTB misses (Count)
system.cpu.branchPred.btb.updates::NoBranch            0      0.00%      0.00% # Number of BTB updates (Count)
system.cpu.branchPred.btb.updates::Return            0      0.00%      0.00% # Number of BTB updates (Count)
system.cpu.branchPred.btb.updates::CallDirect         4102      0.37%      0.37% # Number of BTB updates (Count)
system.cpu.branchPred.btb.updates::CallIndirect            0      0.00%      0.37% # Number of BTB updates (Count)
system.cpu.branchPred.btb.updates::DirectCond      1037298     93.36%     93.73% # Number of BTB updates (Count)
system.cpu.branchPred.btb.updates::DirectUncond        69643      6.27%    100.00% # Number of BTB updates (Count)
system.cpu.branchPred.btb.updates::IndirectCond            0      0.00%    100.00% # Number of BTB updates (Count)
system.cpu.branchPred.btb.updates::IndirectUncond            0      0.00%    100.00% # Number of BTB updates (Count)
system.cpu.branchPred.btb.updates::total      1111043                       # Number of BTB updates (Count)
system.cpu.branchPred.btb.mispredict::NoBranch            0      0.00%      0.00% # Number of BTB mispredictions. No target found or target wrong. (Count)
system.cpu.branchPred.btb.mispredict::Return            0      0.00%      0.00% # Number of BTB mispredictions. No target found or target wrong. (Count)
system.cpu.branchPred.btb.mispredict::CallDirect         4102      0.37%      0.37% # Number of BTB mispredictions. No target found or target wrong. (Count)
system.cpu.branchPred.btb.mispredict::CallIndirect            0      0.00%      0.37% # Number of BTB mispredictions. No target found or target wrong. (Count)
system.cpu.branchPred.btb.mispredict::DirectCond      1037298     93.36%     93.73% # Number of BTB mispredictions. No target found or target wrong. (Count)
system.cpu.branchPred.btb.mispredict::DirectUncond        69643      6.27%    100.00% # Number of BTB mispredictions. No target found or target wrong. (Count)
system.cpu.branchPred.btb.mispredict::IndirectCond            0      0.00%    100.00% # Number of BTB mispredictions. No target found or target wrong. (Count)
system.cpu.branchPred.btb.mispredict::IndirectUncond            0      0.00%    100.00% # Number of BTB mispredictions. No target found or target wrong. (Count)
system.cpu.branchPred.btb.mispredict::total      1111043                       # Number of BTB mispredictions. No target found or target wrong. (Count)
system.cpu.branchPred.btb.power_state.pwrStateResidencyTicks::UNDEFINED 2004767119569                       # Cumulative time (in ticks) in various power states (Tick)
system.cpu.branchPred.indirectBranchPred.lookups       278392                       # Number of lookups (Count)
system.cpu.branchPred.indirectBranchPred.hits       267422                       # Number of hits of a tag (Count)
system.cpu.branchPred.indirectBranchPred.misses        10970                       # Number of misses (Count)
system.cpu.branchPred.indirectBranchPred.targetRecords         2517                       # Number of targets that where recorded/installed in the cache (Count)
system.cpu.branchPred.indirectBranchPred.indirectRecords       280909                       # Number of indirect branches/calls recorded in the indirect hist (Count)
system.cpu.branchPred.indirectBranchPred.speculativeOverflows            1                       # Number of times more than the allowed capacity for speculative branches/calls where in flight and destroy the path history (Count)
system.cpu.branchPred.ras.pushes              1822177                       # Number of times a PC was pushed onto the RAS (Count)
system.cpu.branchPred.ras.pops                1822172                       # Number of times a PC was poped from the RAS (Count)
system.cpu.branchPred.ras.squashes             891224                       # Number of times the stack operation was squashed due to wrong speculation. (Count)
system.cpu.branchPred.ras.used                 930947                       # Number of times the RAS is the provider (Count)
system.cpu.branchPred.ras.correct              927953                       # Number of times the RAS is the provider and the prediction is correct (Count)
system.cpu.branchPred.ras.incorrect              2994                       # Number of times the RAS is the provider and the prediction is wrong (Count)
system.cpu.commit.commitSquashedInsts       121566379                       # The number of squashed insts skipped by commit (Count)
system.cpu.commit.commitNonSpecStalls          688323                       # The number of times commit has been forced to stall to communicate backwards (Count)
system.cpu.commit.branchMispredicts           2000865                       # The number of times a branch was mispredicted (Count)
system.cpu.commit.numCommittedDist::samples    133115725                       # Number of insts commited each cycle (Count)
system.cpu.commit.numCommittedDist::mean     2.329924                       # Number of insts commited each cycle (Count)
system.cpu.commit.numCommittedDist::stdev     2.972380                       # Number of insts commited each cycle (Count)
system.cpu.commit.numCommittedDist::underflows            0      0.00%      0.00% # Number of insts commited each cycle (Count)
system.cpu.commit.numCommittedDist::0        61106655     45.90%     45.90% # Number of insts commited each cycle (Count)
system.cpu.commit.numCommittedDist::1        17222833     12.94%     58.84% # Number of insts commited each cycle (Count)
system.cpu.commit.numCommittedDist::2         7673381      5.76%     64.61% # Number of insts commited each cycle (Count)
system.cpu.commit.numCommittedDist::3        12324464      9.26%     73.87% # Number of insts commited each cycle (Count)
system.cpu.commit.numCommittedDist::4         4375952      3.29%     77.15% # Number of insts commited each cycle (Count)
system.cpu.commit.numCommittedDist::5         3153531      2.37%     79.52% # Number of insts commited each cycle (Count)
system.cpu.commit.numCommittedDist::6         3745063      2.81%     82.34% # Number of insts commited each cycle (Count)
system.cpu.commit.numCommittedDist::7         3246035      2.44%     84.77% # Number of insts commited each cycle (Count)
system.cpu.commit.numCommittedDist::8        20267811     15.23%    100.00% # Number of insts commited each cycle (Count)
system.cpu.commit.numCommittedDist::overflows            0      0.00%    100.00% # Number of insts commited each cycle (Count)
system.cpu.commit.numCommittedDist::min_value            0                       # Number of insts commited each cycle (Count)
system.cpu.commit.numCommittedDist::max_value            8                       # Number of insts commited each cycle (Count)
system.cpu.commit.numCommittedDist::total    133115725                       # Number of insts commited each cycle (Count)
system.cpu.commit.amos                              0                       # Number of atomic instructions committed (Count)
system.cpu.commit.membars                      458178                       # Number of memory barriers committed (Count)
system.cpu.commit.functionCalls                930952                       # Number of function calls committed. (Count)
system.cpu.commit.committedInstType_0::No_OpClass      1400496      0.45%      0.45% # Class of committed instruction (Count)
system.cpu.commit.committedInstType_0::IntAlu    237061813     76.43%     76.89% # Class of committed instruction (Count)
system.cpu.commit.committedInstType_0::IntMult       506650      0.16%     77.05% # Class of committed instruction (Count)
system.cpu.commit.committedInstType_0::IntDiv      1973011      0.64%     77.69% # Class of committed instruction (Count)
system.cpu.commit.committedInstType_0::FloatAdd      6268832      2.02%     79.71% # Class of committed instruction (Count)
system.cpu.commit.committedInstType_0::FloatCmp            0      0.00%     79.71% # Class of committed instruction (Count)
system.cpu.commit.committedInstType_0::FloatCvt         1792      0.00%     79.71% # Class of committed instruction (Count)
system.cpu.commit.committedInstType_0::FloatMult            0      0.00%     79.71% # Class of committed instruction (Count)
system.cpu.commit.committedInstType_0::FloatMultAcc            0      0.00%     79.71% # Class of committed instruction (Count)
system.cpu.commit.committedInstType_0::FloatDiv            0      0.00%     79.71% # Class of committed instruction (Count)
system.cpu.commit.committedInstType_0::FloatMisc            0      0.00%     79.71% # Class of committed instruction (Count)
system.cpu.commit.committedInstType_0::FloatSqrt            0      0.00%     79.71% # Class of committed instruction (Count)
system.cpu.commit.committedInstType_0::SimdAdd         7072      0.00%     79.71% # Class of committed instruction (Count)
system.cpu.commit.committedInstType_0::SimdAddAcc            0      0.00%     79.71% # Class of committed instruction (Count)
system.cpu.commit.committedInstType_0::SimdAlu       277917      0.09%     79.80% # Class of committed instruction (Count)
system.cpu.commit.committedInstType_0::SimdCmp           24      0.00%     79.80% # Class of committed instruction (Count)
system.cpu.commit.committedInstType_0::SimdCvt        80452      0.03%     79.83% # Class of committed instruction (Count)
system.cpu.commit.committedInstType_0::SimdMisc       125547      0.04%     79.87% # Class of committed instruction (Count)
system.cpu.commit.committedInstType_0::SimdMult            0      0.00%     79.87% # Class of committed instruction (Count)
system.cpu.commit.committedInstType_0::SimdMultAcc            0      0.00%     79.87% # Class of committed instruction (Count)
system.cpu.commit.committedInstType_0::SimdMatMultAcc            0      0.00%     79.87% # Class of committed instruction (Count)
system.cpu.commit.committedInstType_0::SimdShift         2051      0.00%     79.87% # Class of committed instruction (Count)
system.cpu.commit.committedInstType_0::SimdShiftAcc            0      0.00%     79.87% # Class of committed instruction (Count)
system.cpu.commit.committedInstType_0::SimdDiv            0      0.00%     79.87% # Class of committed instruction (Count)
system.cpu.commit.committedInstType_0::SimdSqrt            0      0.00%     79.87% # Class of committed instruction (Count)
system.cpu.commit.committedInstType_0::SimdFloatAdd        32827      0.01%     79.88% # Class of committed instruction (Count)
system.cpu.commit.committedInstType_0::SimdFloatAlu            0      0.00%     79.88% # Class of committed instruction (Count)
system.cpu.commit.committedInstType_0::SimdFloatCmp            0      0.00%     79.88% # Class of committed instruction (Count)
system.cpu.commit.committedInstType_0::SimdFloatCvt      2765131      0.89%     80.77% # Class of committed instruction (Count)
system.cpu.commit.committedInstType_0::SimdFloatDiv          225      0.00%     80.77% # Class of committed instruction (Count)
system.cpu.commit.committedInstType_0::SimdFloatMisc            0      0.00%     80.77% # Class of committed instruction (Count)
system.cpu.commit.committedInstType_0::SimdFloatMult            0      0.00%     80.77% # Class of committed instruction (Count)
system.cpu.commit.committedInstType_0::SimdFloatMultAcc            0      0.00%     80.77% # Class of committed instruction (Count)
system.cpu.commit.committedInstType_0::SimdFloatMatMultAcc            0      0.00%     80.77% # Class of committed instruction (Count)
system.cpu.commit.committedInstType_0::SimdFloatSqrt            9      0.00%     80.77% # Class of committed instruction (Count)
system.cpu.commit.committedInstType_0::SimdReduceAdd            0      0.00%     80.77% # Class of committed instruction (Count)
system.cpu.commit.committedInstType_0::SimdReduceAlu            0      0.00%     80.77% # Class of committed instruction (Count)
system.cpu.commit.committedInstType_0::SimdReduceCmp            0      0.00%     80.77% # Class of committed instruction (Count)
system.cpu.commit.committedInstType_0::SimdFloatReduceAdd            0      0.00%     80.77% # Class of committed instruction (Count)
system.cpu.commit.committedInstType_0::SimdFloatReduceCmp            0      0.00%     80.77% # Class of committed instruction (Count)
system.cpu.commit.committedInstType_0::SimdAes            0      0.00%     80.77% # Class of committed instruction (Count)
system.cpu.commit.committedInstType_0::SimdAesMix            0      0.00%     80.77% # Class of committed instruction (Count)
system.cpu.commit.committedInstType_0::SimdSha1Hash            0      0.00%     80.77% # Class of committed instruction (Count)
system.cpu.commit.committedInstType_0::SimdSha1Hash2            0      0.00%     80.77% # Class of committed instruction (Count)
system.cpu.commit.committedInstType_0::SimdSha256Hash            0      0.00%     80.77% # Class of committed instruction (Count)
system.cpu.commit.committedInstType_0::SimdSha256Hash2            0      0.00%     80.77% # Class of committed instruction (Count)
system.cpu.commit.committedInstType_0::SimdShaSigma2            0      0.00%     80.77% # Class of committed instruction (Count)
system.cpu.commit.committedInstType_0::SimdShaSigma3            0      0.00%     80.77% # Class of committed instruction (Count)
system.cpu.commit.committedInstType_0::SimdPredAlu            0      0.00%     80.77% # Class of committed instruction (Count)
system.cpu.commit.committedInstType_0::Matrix            0      0.00%     80.77% # Class of committed instruction (Count)
system.cpu.commit.committedInstType_0::MatrixMov            0      0.00%     80.77% # Class of committed instruction (Count)
system.cpu.commit.committedInstType_0::MatrixOP            0      0.00%     80.77% # Class of committed instruction (Count)
system.cpu.commit.committedInstType_0::MemRead     38932145     12.55%     93.32% # Class of committed instruction (Count)
system.cpu.commit.committedInstType_0::MemWrite     13340314      4.30%     97.62% # Class of committed instruction (Count)
system.cpu.commit.committedInstType_0::FloatMemRead      4788650      1.54%     99.17% # Class of committed instruction (Count)
system.cpu.commit.committedInstType_0::FloatMemWrite      2584603      0.83%    100.00% # Class of committed instruction (Count)
system.cpu.commit.committedInstType_0::IprAccess            0      0.00%    100.00% # Class of committed instruction (Count)
system.cpu.commit.committedInstType_0::InstPrefetch            0      0.00%    100.00% # Class of committed instruction (Count)
system.cpu.commit.committedInstType_0::SimdUnitStrideLoad            0      0.00%    100.00% # Class of committed instruction (Count)
system.cpu.commit.committedInstType_0::SimdUnitStrideStore            0      0.00%    100.00% # Class of committed instruction (Count)
system.cpu.commit.committedInstType_0::SimdUnitStrideMaskLoad            0      0.00%    100.00% # Class of committed instruction (Count)
system.cpu.commit.committedInstType_0::SimdUnitStrideMaskStore            0      0.00%    100.00% # Class of committed instruction (Count)
system.cpu.commit.committedInstType_0::SimdStridedLoad            0      0.00%    100.00% # Class of committed instruction (Count)
system.cpu.commit.committedInstType_0::SimdStridedStore            0      0.00%    100.00% # Class of committed instruction (Count)
system.cpu.commit.committedInstType_0::SimdIndexedLoad            0      0.00%    100.00% # Class of committed instruction (Count)
system.cpu.commit.committedInstType_0::SimdIndexedStore            0      0.00%    100.00% # Class of committed instruction (Count)
system.cpu.commit.committedInstType_0::SimdWholeRegisterLoad            0      0.00%    100.00% # Class of committed instruction (Count)
system.cpu.commit.committedInstType_0::SimdWholeRegisterStore            0      0.00%    100.00% # Class of committed instruction (Count)
system.cpu.commit.committedInstType_0::SimdUnitStrideFaultOnlyFirstLoad            0      0.00%    100.00% # Class of committed instruction (Count)
system.cpu.commit.committedInstType_0::SimdUnitStrideSegmentedLoad            0      0.00%    100.00% # Class of committed instruction (Count)
system.cpu.commit.committedInstType_0::SimdUnitStrideSegmentedStore            0      0.00%    100.00% # Class of committed instruction (Count)
system.cpu.commit.committedInstType_0::SimdExt            0      0.00%    100.00% # Class of committed instruction (Count)
system.cpu.commit.committedInstType_0::SimdFloatExt            0      0.00%    100.00% # Class of committed instruction (Count)
system.cpu.commit.committedInstType_0::SimdConfig            0      0.00%    100.00% # Class of committed instruction (Count)
system.cpu.commit.committedInstType_0::total    310149561                       # Class of committed instruction (Count)
system.cpu.commit.commitEligibleSamples      20267811                       # number cycles where commit BW limit reached (Cycle)
system.cpu.commitStats0.numInsts            169182811                       # Number of instructions committed (thread level) (Count)
system.cpu.commitStats0.numOps              310149561                       # Number of ops (including micro ops) committed (thread level) (Count)
system.cpu.commitStats0.numInstsNotNOP      169182811                       # Number of instructions committed excluding NOPs or prefetches (Count)
system.cpu.commitStats0.numOpsNotNOP        310149561                       # Number of Ops (including micro ops) Simulated (Count)
system.cpu.commitStats0.cpi                  0.888750                       # CPI: cycles per instruction (thread level) ((Cycle/Count))
system.cpu.commitStats0.ipc                  1.125175                       # IPC: instructions per cycle (thread level) ((Count/Cycle))
system.cpu.commitStats0.numMemRefs           59645712                       # Number of memory references committed (Count)
system.cpu.commitStats0.numFpInsts           16941911                       # Number of float instructions (Count)
system.cpu.commitStats0.numIntInsts         298263811                       # Number of integer instructions (Count)
system.cpu.commitStats0.numLoadInsts         43720795                       # Number of load instructions (Count)
system.cpu.commitStats0.numStoreInsts        15924917                       # Number of store instructions (Count)
system.cpu.commitStats0.numVecInsts                 0                       # Number of vector instructions (Count)
system.cpu.commitStats0.committedInstType::No_OpClass      1400496      0.45%      0.45% # Class of committed instruction. (Count)
system.cpu.commitStats0.committedInstType::IntAlu    237061813     76.43%     76.89% # Class of committed instruction. (Count)
system.cpu.commitStats0.committedInstType::IntMult       506650      0.16%     77.05% # Class of committed instruction. (Count)
system.cpu.commitStats0.committedInstType::IntDiv      1973011      0.64%     77.69% # Class of committed instruction. (Count)
system.cpu.commitStats0.committedInstType::FloatAdd      6268832      2.02%     79.71% # Class of committed instruction. (Count)
system.cpu.commitStats0.committedInstType::FloatCmp            0      0.00%     79.71% # Class of committed instruction. (Count)
system.cpu.commitStats0.committedInstType::FloatCvt         1792      0.00%     79.71% # Class of committed instruction. (Count)
system.cpu.commitStats0.committedInstType::FloatMult            0      0.00%     79.71% # Class of committed instruction. (Count)
system.cpu.commitStats0.committedInstType::FloatMultAcc            0      0.00%     79.71% # Class of committed instruction. (Count)
system.cpu.commitStats0.committedInstType::FloatDiv            0      0.00%     79.71% # Class of committed instruction. (Count)
system.cpu.commitStats0.committedInstType::FloatMisc            0      0.00%     79.71% # Class of committed instruction. (Count)
system.cpu.commitStats0.committedInstType::FloatSqrt            0      0.00%     79.71% # Class of committed instruction. (Count)
system.cpu.commitStats0.committedInstType::SimdAdd         7072      0.00%     79.71% # Class of committed instruction. (Count)
system.cpu.commitStats0.committedInstType::SimdAddAcc            0      0.00%     79.71% # Class of committed instruction. (Count)
system.cpu.commitStats0.committedInstType::SimdAlu       277917      0.09%     79.80% # Class of committed instruction. (Count)
system.cpu.commitStats0.committedInstType::SimdCmp           24      0.00%     79.80% # Class of committed instruction. (Count)
system.cpu.commitStats0.committedInstType::SimdCvt        80452      0.03%     79.83% # Class of committed instruction. (Count)
system.cpu.commitStats0.committedInstType::SimdMisc       125547      0.04%     79.87% # Class of committed instruction. (Count)
system.cpu.commitStats0.committedInstType::SimdMult            0      0.00%     79.87% # Class of committed instruction. (Count)
system.cpu.commitStats0.committedInstType::SimdMultAcc            0      0.00%     79.87% # Class of committed instruction. (Count)
system.cpu.commitStats0.committedInstType::SimdMatMultAcc            0      0.00%     79.87% # Class of committed instruction. (Count)
system.cpu.commitStats0.committedInstType::SimdShift         2051      0.00%     79.87% # Class of committed instruction. (Count)
system.cpu.commitStats0.committedInstType::SimdShiftAcc            0      0.00%     79.87% # Class of committed instruction. (Count)
system.cpu.commitStats0.committedInstType::SimdDiv            0      0.00%     79.87% # Class of committed instruction. (Count)
system.cpu.commitStats0.committedInstType::SimdSqrt            0      0.00%     79.87% # Class of committed instruction. (Count)
system.cpu.commitStats0.committedInstType::SimdFloatAdd        32827      0.01%     79.88% # Class of committed instruction. (Count)
system.cpu.commitStats0.committedInstType::SimdFloatAlu            0      0.00%     79.88% # Class of committed instruction. (Count)
system.cpu.commitStats0.committedInstType::SimdFloatCmp            0      0.00%     79.88% # Class of committed instruction. (Count)
system.cpu.commitStats0.committedInstType::SimdFloatCvt      2765131      0.89%     80.77% # Class of committed instruction. (Count)
system.cpu.commitStats0.committedInstType::SimdFloatDiv          225      0.00%     80.77% # Class of committed instruction. (Count)
system.cpu.commitStats0.committedInstType::SimdFloatMisc            0      0.00%     80.77% # Class of committed instruction. (Count)
system.cpu.commitStats0.committedInstType::SimdFloatMult            0      0.00%     80.77% # Class of committed instruction. (Count)
system.cpu.commitStats0.committedInstType::SimdFloatMultAcc            0      0.00%     80.77% # Class of committed instruction. (Count)
system.cpu.commitStats0.committedInstType::SimdFloatMatMultAcc            0      0.00%     80.77% # Class of committed instruction. (Count)
system.cpu.commitStats0.committedInstType::SimdFloatSqrt            9      0.00%     80.77% # Class of committed instruction. (Count)
system.cpu.commitStats0.committedInstType::SimdReduceAdd            0      0.00%     80.77% # Class of committed instruction. (Count)
system.cpu.commitStats0.committedInstType::SimdReduceAlu            0      0.00%     80.77% # Class of committed instruction. (Count)
system.cpu.commitStats0.committedInstType::SimdReduceCmp            0      0.00%     80.77% # Class of committed instruction. (Count)
system.cpu.commitStats0.committedInstType::SimdFloatReduceAdd            0      0.00%     80.77% # Class of committed instruction. (Count)
system.cpu.commitStats0.committedInstType::SimdFloatReduceCmp            0      0.00%     80.77% # Class of committed instruction. (Count)
system.cpu.commitStats0.committedInstType::SimdAes            0      0.00%     80.77% # Class of committed instruction. (Count)
system.cpu.commitStats0.committedInstType::SimdAesMix            0      0.00%     80.77% # Class of committed instruction. (Count)
system.cpu.commitStats0.committedInstType::SimdSha1Hash            0      0.00%     80.77% # Class of committed instruction. (Count)
system.cpu.commitStats0.committedInstType::SimdSha1Hash2            0      0.00%     80.77% # Class of committed instruction. (Count)
system.cpu.commitStats0.committedInstType::SimdSha256Hash            0      0.00%     80.77% # Class of committed instruction. (Count)
system.cpu.commitStats0.committedInstType::SimdSha256Hash2            0      0.00%     80.77% # Class of committed instruction. (Count)
system.cpu.commitStats0.committedInstType::SimdShaSigma2            0      0.00%     80.77% # Class of committed instruction. (Count)
system.cpu.commitStats0.committedInstType::SimdShaSigma3            0      0.00%     80.77% # Class of committed instruction. (Count)
system.cpu.commitStats0.committedInstType::SimdPredAlu            0      0.00%     80.77% # Class of committed instruction. (Count)
system.cpu.commitStats0.committedInstType::Matrix            0      0.00%     80.77% # Class of committed instruction. (Count)
system.cpu.commitStats0.committedInstType::MatrixMov            0      0.00%     80.77% # Class of committed instruction. (Count)
system.cpu.commitStats0.committedInstType::MatrixOP            0      0.00%     80.77% # Class of committed instruction. (Count)
system.cpu.commitStats0.committedInstType::MemRead     38932145     12.55%     93.32% # Class of committed instruction. (Count)
system.cpu.commitStats0.committedInstType::MemWrite     13340314      4.30%     97.62% # Class of committed instruction. (Count)
system.cpu.commitStats0.committedInstType::FloatMemRead      4788650      1.54%     99.17% # Class of committed instruction. (Count)
system.cpu.commitStats0.committedInstType::FloatMemWrite      2584603      0.83%    100.00% # Class of committed instruction. (Count)
system.cpu.commitStats0.committedInstType::IprAccess            0      0.00%    100.00% # Class of committed instruction. (Count)
system.cpu.commitStats0.committedInstType::InstPrefetch            0      0.00%    100.00% # Class of committed instruction. (Count)
system.cpu.commitStats0.committedInstType::SimdUnitStrideLoad            0      0.00%    100.00% # Class of committed instruction. (Count)
system.cpu.commitStats0.committedInstType::SimdUnitStrideStore            0      0.00%    100.00% # Class of committed instruction. (Count)
system.cpu.commitStats0.committedInstType::SimdUnitStrideMaskLoad            0      0.00%    100.00% # Class of committed instruction. (Count)
system.cpu.commitStats0.committedInstType::SimdUnitStrideMaskStore            0      0.00%    100.00% # Class of committed instruction. (Count)
system.cpu.commitStats0.committedInstType::SimdStridedLoad            0      0.00%    100.00% # Class of committed instruction. (Count)
system.cpu.commitStats0.committedInstType::SimdStridedStore            0      0.00%    100.00% # Class of committed instruction. (Count)
system.cpu.commitStats0.committedInstType::SimdIndexedLoad            0      0.00%    100.00% # Class of committed instruction. (Count)
system.cpu.commitStats0.committedInstType::SimdIndexedStore            0      0.00%    100.00% # Class of committed instruction. (Count)
system.cpu.commitStats0.committedInstType::SimdWholeRegisterLoad            0      0.00%    100.00% # Class of committed instruction. (Count)
system.cpu.commitStats0.committedInstType::SimdWholeRegisterStore            0      0.00%    100.00% # Class of committed instruction. (Count)
system.cpu.commitStats0.committedInstType::SimdUnitStrideFaultOnlyFirstLoad            0      0.00%    100.00% # Class of committed instruction. (Count)
system.cpu.commitStats0.committedInstType::SimdUnitStrideSegmentedLoad            0      0.00%    100.00% # Class of committed instruction. (Count)
system.cpu.commitStats0.committedInstType::SimdUnitStrideSegmentedStore            0      0.00%    100.00% # Class of committed instruction. (Count)
system.cpu.commitStats0.committedInstType::SimdExt            0      0.00%    100.00% # Class of committed instruction. (Count)
system.cpu.commitStats0.committedInstType::SimdFloatExt            0      0.00%    100.00% # Class of committed instruction. (Count)
system.cpu.commitStats0.committedInstType::SimdConfig            0      0.00%    100.00% # Class of committed instruction. (Count)
system.cpu.commitStats0.committedInstType::total    310149561                       # Class of committed instruction. (Count)
system.cpu.commitStats0.committedControl::IsControl     35898298                       # Class of control type instructions committed (Count)
system.cpu.commitStats0.committedControl::IsDirectControl     34701858                       # Class of control type instructions committed (Count)
system.cpu.commitStats0.committedControl::IsIndirectControl      1196108                       # Class of control type instructions committed (Count)
system.cpu.commitStats0.committedControl::IsCondControl     31042443                       # Class of control type instructions committed (Count)
system.cpu.commitStats0.committedControl::IsUncondControl      4855523                       # Class of control type instructions committed (Count)
system.cpu.commitStats0.committedControl::IsCall       930952                       # Class of control type instructions committed (Count)
system.cpu.commitStats0.committedControl::IsReturn       930947                       # Class of control type instructions committed (Count)
system.cpu.decode.idleCycles                 42076154                       # Number of cycles decode is idle (Cycle)
system.cpu.decode.blockedCycles              36966671                       # Number of cycles decode is blocked (Cycle)
system.cpu.decode.runCycles                  60420674                       # Number of cycles decode is running (Cycle)
system.cpu.decode.unblockCycles               8120332                       # Number of cycles decode is unblocking (Cycle)
system.cpu.decode.squashCycles                2107547                       # Number of cycles decode is squashing (Cycle)
system.cpu.decode.branchResolved             27946221                       # Number of times decode resolved a branch (Count)
system.cpu.decode.branchMispred                124572                       # Number of times decode detected a branch misprediction (Count)
system.cpu.decode.decodedInsts              466573912                       # Number of instructions handled by decode (Count)
system.cpu.decode.squashedInsts                667712                       # Number of squashed instructions handled by decode (Count)
system.cpu.executeStats0.numInsts           380972342                       # Number of executed instructions (Count)
system.cpu.executeStats0.numNop                     0                       # Number of nop insts executed (Count)
system.cpu.executeStats0.numBranches         40754848                       # Number of branches executed (Count)
system.cpu.executeStats0.numLoadInsts        55496546                       # Number of load instructions executed (Count)
system.cpu.executeStats0.numStoreInsts       18813472                       # Number of stores executed (Count)
system.cpu.executeStats0.instRate            2.533713                       # Inst execution rate ((Count/Cycle))
system.cpu.executeStats0.numCCRegReads      253060753                       # Number of times the CC registers were read (Count)
system.cpu.executeStats0.numCCRegWrites     141148140                       # Number of times the CC registers were written (Count)
system.cpu.executeStats0.numFpRegReads       11806317                       # Number of times the floating registers were read (Count)
system.cpu.executeStats0.numFpRegWrites      18563720                       # Number of times the floating registers were written (Count)
system.cpu.executeStats0.numIntRegReads     442302305                       # Number of times the integer registers were read (Count)
system.cpu.executeStats0.numIntRegWrites    264412580                       # Number of times the integer registers were written (Count)
system.cpu.executeStats0.numMemRefs          74310018                       # Number of memory refs (Count)
system.cpu.executeStats0.numMiscRegReads    159874698                       # Number of times the Misc registers were read (Count)
system.cpu.executeStats0.numMiscRegWrites         1008                       # Number of times the Misc registers were written (Count)
system.cpu.executeStats0.numVecAluAccesses            0                       # Number of vector alu accesses (Count)
system.cpu.executeStats0.numDiscardedOps            0                       # Number of ops (including micro ops) which were discarded before commit (Count)
system.cpu.fetch.predictedBranches           31572234                       # Number of branches that fetch has predicted taken (Count)
system.cpu.fetch.cycles                     111042962                       # Number of cycles fetch has run and was not squashing or blocked (Cycle)
system.cpu.fetch.squashCycles                 4451530                       # Number of cycles fetch has spent squashing (Cycle)
system.cpu.fetch.miscStallCycles                  364                       # Number of cycles fetch has spent waiting on interrupts, or bad addresses, or out of MSHRs (Cycle)
system.cpu.fetch.pendingTrapStallCycles          3410                       # Number of stall cycles due to pending traps (Cycle)
system.cpu.fetch.cacheLines                  36169822                       # Number of cache lines fetched (Count)
[...]
system.mem_ctrl.dram.bwRead::cpu.data        46310642                       # Total read bandwidth from this memory ((Byte/Second))
system.mem_ctrl.dram.bwRead::total          254588598                       # Total read bandwidth from this memory ((Byte/Second))
system.mem_ctrl.dram.bwInstRead::cpu.inst    208277956                       # Instruction read bandwidth from this memory ((Byte/Second))
system.mem_ctrl.dram.bwInstRead::total      208277956                       # Instruction read bandwidth from this memory ((Byte/Second))
system.mem_ctrl.dram.bwWrite::writebacks     15346400                       # Write bandwidth from this memory ((Byte/Second))
system.mem_ctrl.dram.bwWrite::total          15346400                       # Write bandwidth from this memory ((Byte/Second))
system.mem_ctrl.dram.bwTotal::writebacks     15346400                       # Total bandwidth to/from this memory ((Byte/Second))
system.mem_ctrl.dram.bwTotal::cpu.inst      208277956                       # Total bandwidth to/from this memory ((Byte/Second))
system.mem_ctrl.dram.bwTotal::cpu.data       46310642                       # Total bandwidth to/from this memory ((Byte/Second))
system.mem_ctrl.dram.bwTotal::total         269934998                       # Total bandwidth to/from this memory ((Byte/Second))
system.mem_ctrl.dram.readBursts                441450                       # Number of DRAM read bursts (Count)
system.mem_ctrl.dram.writeBursts                14206                       # Number of DRAM write bursts (Count)
system.mem_ctrl.dram.perBankRdBursts::0          1574                       # Per bank write bursts (Count)
system.mem_ctrl.dram.perBankRdBursts::1          1777                       # Per bank write bursts (Count)
system.mem_ctrl.dram.perBankRdBursts::2          1361                       # Per bank write bursts (Count)
system.mem_ctrl.dram.perBankRdBursts::3          9560                       # Per bank write bursts (Count)
system.mem_ctrl.dram.perBankRdBursts::4          3744                       # Per bank write bursts (Count)
system.mem_ctrl.dram.perBankRdBursts::5          1640                       # Per bank write bursts (Count)
system.mem_ctrl.dram.perBankRdBursts::6          1582                       # Per bank write bursts (Count)
system.mem_ctrl.dram.perBankRdBursts::7          2360                       # Per bank write bursts (Count)
system.mem_ctrl.dram.perBankRdBursts::8         12302                       # Per bank write bursts (Count)
system.mem_ctrl.dram.perBankRdBursts::9        127229                       # Per bank write bursts (Count)
system.mem_ctrl.dram.perBankRdBursts::10        92505                       # Per bank write bursts (Count)
system.mem_ctrl.dram.perBankRdBursts::11       108000                       # Per bank write bursts (Count)
system.mem_ctrl.dram.perBankRdBursts::12        36584                       # Per bank write bursts (Count)
system.mem_ctrl.dram.perBankRdBursts::13        37681                       # Per bank write bursts (Count)
system.mem_ctrl.dram.perBankRdBursts::14         1814                       # Per bank write bursts (Count)
system.mem_ctrl.dram.perBankRdBursts::15         1737                       # Per bank write bursts (Count)
system.mem_ctrl.dram.perBankWrBursts::0           346                       # Per bank write bursts (Count)
system.mem_ctrl.dram.perBankWrBursts::1           415                       # Per bank write bursts (Count)
system.mem_ctrl.dram.perBankWrBursts::2           477                       # Per bank write bursts (Count)
system.mem_ctrl.dram.perBankWrBursts::3           398                       # Per bank write bursts (Count)
system.mem_ctrl.dram.perBankWrBursts::4           407                       # Per bank write bursts (Count)
system.mem_ctrl.dram.perBankWrBursts::5           643                       # Per bank write bursts (Count)
system.mem_ctrl.dram.perBankWrBursts::6           672                       # Per bank write bursts (Count)
system.mem_ctrl.dram.perBankWrBursts::7           941                       # Per bank write bursts (Count)
system.mem_ctrl.dram.perBankWrBursts::8          1727                       # Per bank write bursts (Count)
system.mem_ctrl.dram.perBankWrBursts::9           949                       # Per bank write bursts (Count)
system.mem_ctrl.dram.perBankWrBursts::10          787                       # Per bank write bursts (Count)
system.mem_ctrl.dram.perBankWrBursts::11         1404                       # Per bank write bursts (Count)
system.mem_ctrl.dram.perBankWrBursts::12          420                       # Per bank write bursts (Count)
system.mem_ctrl.dram.perBankWrBursts::13         3372                       # Per bank write bursts (Count)
system.mem_ctrl.dram.perBankWrBursts::14          723                       # Per bank write bursts (Count)
system.mem_ctrl.dram.perBankWrBursts::15          525                       # Per bank write bursts (Count)
system.mem_ctrl.dram.totQLat               5262372239                       # Total ticks spent queuing (Tick)
system.mem_ctrl.dram.totBusLat             2207250000                       # Total ticks spent in databus transfers (Tick)
system.mem_ctrl.dram.totMemAccLat         13539559739                       # Total ticks spent from burst creation until serviced by the DRAM (Tick)
system.mem_ctrl.dram.avgQLat                 11920.65                       # Average queueing delay per DRAM burst ((Tick/Count))
system.mem_ctrl.dram.avgBusLat                5000.00                       # Average bus latency per DRAM burst ((Tick/Count))
system.mem_ctrl.dram.avgMemAccLat            30670.65                       # Average memory access latency per DRAM burst ((Tick/Count))
system.mem_ctrl.dram.readRowHits               278872                       # Number of row buffer hits during reads (Count)
system.mem_ctrl.dram.writeRowHits               12630                       # Number of row buffer hits during writes (Count)
system.mem_ctrl.dram.readRowHitRate             63.17                       # Row buffer hit rate for reads (Ratio)
system.mem_ctrl.dram.writeRowHitRate            88.91                       # Row buffer hit rate for writes (Ratio)
system.mem_ctrl.dram.bytesPerActivate::samples       164158                       # Bytes accessed per row activation (Byte)
system.mem_ctrl.dram.bytesPerActivate::mean   177.650118                       # Bytes accessed per row activation (Byte)
system.mem_ctrl.dram.bytesPerActivate::gmean   126.804047                       # Bytes accessed per row activation (Byte)
system.mem_ctrl.dram.bytesPerActivate::stdev   180.452079                       # Bytes accessed per row activation (Byte)
system.mem_ctrl.dram.bytesPerActivate::0-127        76793     46.78%     46.78% # Bytes accessed per row activation (Byte)
system.mem_ctrl.dram.bytesPerActivate::128-255        45462     27.69%     74.47% # Bytes accessed per row activation (Byte)
system.mem_ctrl.dram.bytesPerActivate::256-383        24048     14.65%     89.12% # Bytes accessed per row activation (Byte)
system.mem_ctrl.dram.bytesPerActivate::384-511         7891      4.81%     93.93% # Bytes accessed per row activation (Byte)
system.mem_ctrl.dram.bytesPerActivate::512-639          852      0.52%     94.45% # Bytes accessed per row activation (Byte)
system.mem_ctrl.dram.bytesPerActivate::640-767         3507      2.14%     96.59% # Bytes accessed per row activation (Byte)
system.mem_ctrl.dram.bytesPerActivate::768-895         3346      2.04%     98.62% # Bytes accessed per row activation (Byte)
system.mem_ctrl.dram.bytesPerActivate::896-1023         1482      0.90%     99.53% # Bytes accessed per row activation (Byte)
system.mem_ctrl.dram.bytesPerActivate::1024-1151          777      0.47%    100.00% # Bytes accessed per row activation (Byte)
system.mem_ctrl.dram.bytesPerActivate::total       164158                       # Bytes accessed per row activation (Byte)
system.mem_ctrl.dram.dramBytesRead           28252800                       # Total bytes read (Byte)
system.mem_ctrl.dram.dramBytesWritten          909184                       # Total bytes written (Byte)
system.mem_ctrl.dram.avgRdBW               244.546381                       # Average DRAM read bandwidth in MiBytes/s ((Byte/Second))
system.mem_ctrl.dram.avgWrBW                 7.869580                       # Average DRAM write bandwidth in MiBytes/s ((Byte/Second))
system.mem_ctrl.dram.peakBW                  12800.00                       # Theoretical peak bandwidth in MiByte/s ((Byte/Second))
system.mem_ctrl.dram.busUtil                     1.97                       # Data bus utilization in percentage (Ratio)
system.mem_ctrl.dram.busUtilRead                 1.91                       # Data bus utilization in percentage for reads (Ratio)
system.mem_ctrl.dram.busUtilWrite                0.06                       # Data bus utilization in percentage for writes (Ratio)
system.mem_ctrl.dram.pageHitRate                63.97                       # Row buffer hit rate, read and write combined (Ratio)
system.mem_ctrl.dram.power_state.pwrStateResidencyTicks::UNDEFINED 115531458308                       # Cumulative time (in ticks) in various power states (Tick)
system.mem_ctrl.dram.rank0.actEnergy        120223320                       # Energy for activate commands per rank (pJ) (Joule)
system.mem_ctrl.dram.rank0.preEnergy         63915390                       # Energy for precharge commands per rank (pJ) (Joule)
system.mem_ctrl.dram.rank0.readEnergy       168489720                       # Energy for read commands per rank (pJ) (Joule)
system.mem_ctrl.dram.rank0.writeEnergy       22440780                       # Energy for write commands per rank (pJ) (Joule)
system.mem_ctrl.dram.rank0.refreshEnergy 9120028320.000002                       # Energy for refresh commands per rank (pJ) (Joule)
system.mem_ctrl.dram.rank0.actBackEnergy  23461119630                       # Energy for active background per rank (pJ) (Joule)
system.mem_ctrl.dram.rank0.preBackEnergy  24607347360                       # Energy for precharge background per rank (pJ) (Joule)
system.mem_ctrl.dram.rank0.actPowerDownEnergy            0                       # Energy for active power-down per rank (pJ) (Joule)
system.mem_ctrl.dram.rank0.prePowerDownEnergy            0                       # Energy for precharge power-down per rank (pJ) (Joule)
system.mem_ctrl.dram.rank0.selfRefreshEnergy            0                       # Energy for self refresh per rank (pJ) (Joule)
system.mem_ctrl.dram.rank0.totalEnergy    57563564520                       # Total energy per rank (pJ) (Joule)
system.mem_ctrl.dram.rank0.averagePower    498.250133                       # Core power per rank (mW) (Watt)
system.mem_ctrl.dram.rank0.totalIdleTime            0                       # Total Idle time Per DRAM Rank (Tick)
system.mem_ctrl.dram.rank0.pwrStateTime::IDLE  63717967698                       # Time in different power states (Tick)
system.mem_ctrl.dram.rank0.pwrStateTime::REF   3857880000                       # Time in different power states (Tick)
system.mem_ctrl.dram.rank0.pwrStateTime::SREF            0                       # Time in different power states (Tick)
system.mem_ctrl.dram.rank0.pwrStateTime::PRE_PDN            0                       # Time in different power states (Tick)
system.mem_ctrl.dram.rank0.pwrStateTime::ACT  47955610610                       # Time in different power states (Tick)
system.mem_ctrl.dram.rank0.pwrStateTime::ACT_PDN            0                       # Time in different power states (Tick)
system.mem_ctrl.dram.rank1.actEnergy       1051836240                       # Energy for activate commands per rank (pJ) (Joule)
system.mem_ctrl.dram.rank1.preEnergy        559064220                       # Energy for precharge commands per rank (pJ) (Joule)
system.mem_ctrl.dram.rank1.readEnergy      2983463280                       # Energy for read commands per rank (pJ) (Joule)
system.mem_ctrl.dram.rank1.writeEnergy       51714540                       # Energy for write commands per rank (pJ) (Joule)
system.mem_ctrl.dram.rank1.refreshEnergy 9120028320.000002                       # Energy for refresh commands per rank (pJ) (Joule)
system.mem_ctrl.dram.rank1.actBackEnergy  51121115760                       # Energy for active background per rank (pJ) (Joule)
system.mem_ctrl.dram.rank1.preBackEnergy   1314719040                       # Energy for precharge background per rank (pJ) (Joule)
system.mem_ctrl.dram.rank1.actPowerDownEnergy            0                       # Energy for active power-down per rank (pJ) (Joule)
system.mem_ctrl.dram.rank1.prePowerDownEnergy            0                       # Energy for precharge power-down per rank (pJ) (Joule)
system.mem_ctrl.dram.rank1.selfRefreshEnergy            0                       # Energy for self refresh per rank (pJ) (Joule)
system.mem_ctrl.dram.rank1.totalEnergy    66201941400                       # Total energy per rank (pJ) (Joule)
system.mem_ctrl.dram.rank1.averagePower    573.020910                       # Core power per rank (mW) (Watt)
system.mem_ctrl.dram.rank1.totalIdleTime            0                       # Total Idle time Per DRAM Rank (Tick)
system.mem_ctrl.dram.rank1.pwrStateTime::IDLE   2947648129                       # Time in different power states (Tick)
system.mem_ctrl.dram.rank1.pwrStateTime::REF   3857880000                       # Time in different power states (Tick)
system.mem_ctrl.dram.rank1.pwrStateTime::SREF            0                       # Time in different power states (Tick)
system.mem_ctrl.dram.rank1.pwrStateTime::PRE_PDN            0                       # Time in different power states (Tick)
system.mem_ctrl.dram.rank1.pwrStateTime::ACT 108725930179                       # Time in different power states (Tick)
system.mem_ctrl.dram.rank1.pwrStateTime::ACT_PDN            0                       # Time in different power states (Tick)
system.mem_ctrl.power_state.pwrStateResidencyTicks::UNDEFINED 115531458308                       # Cumulative time (in ticks) in various power states (Tick)
system.membus.transDist::ReadResp              435251                       # Transaction distribution (Count)
system.membus.transDist::WritebackDirty         27703                       # Transaction distribution (Count)
system.membus.transDist::CleanEvict            431876                       # Transaction distribution (Count)
system.membus.transDist::ReadExReq              24328                       # Transaction distribution (Count)
system.membus.transDist::ReadExResp             24328                       # Transaction distribution (Count)
system.membus.transDist::ReadSharedReq         435250                       # Transaction distribution (Count)
system.membus.pktCount_system.cpu.l1d.mem_side_port::system.mem_ctrl.port       250797                       # Packet count per connected requestor and responder (Count)
system.membus.pktCount_system.cpu.l1d.mem_side_port::total       250797                       # Packet count per connected requestor and responder (Count)
system.membus.pktCount_system.cpu.l1i.mem_side_port::system.mem_ctrl.port      1127939                       # Packet count per connected requestor and responder (Count)
system.membus.pktCount_system.cpu.l1i.mem_side_port::total      1127939                       # Packet count per connected requestor and responder (Count)
system.membus.pktCount::total                 1378736                       # Packet count per connected requestor and responder (Count)
system.membus.pktSize_system.cpu.l1d.mem_side_port::system.mem_ctrl.port      7123328                       # Cumulative packet size per connected requestor and responder (Byte)
system.membus.pktSize_system.cpu.l1d.mem_side_port::total      7123328                       # Cumulative packet size per connected requestor and responder (Byte)
system.membus.pktSize_system.cpu.l1i.mem_side_port::system.mem_ctrl.port     24062720                       # Cumulative packet size per connected requestor and responder (Byte)
system.membus.pktSize_system.cpu.l1i.mem_side_port::total     24062720                       # Cumulative packet size per connected requestor and responder (Byte)
system.membus.pktSize::total                 31186048                       # Cumulative packet size per connected requestor and responder (Byte)
system.membus.snoops                                0                       # Total snoops (Count)
system.membus.snoopTraffic                          0                       # Total snoop traffic (Byte)
system.membus.snoopFanout::samples             459578                       # Request fanout histogram (Count)
system.membus.snoopFanout::mean              0.002174                       # Request fanout histogram (Count)
system.membus.snoopFanout::stdev             0.046573                       # Request fanout histogram (Count)
system.membus.snoopFanout::underflows               0      0.00%      0.00% # Request fanout histogram (Count)
system.membus.snoopFanout::0                   458579     99.78%     99.78% # Request fanout histogram (Count)
system.membus.snoopFanout::1                      999      0.22%    100.00% # Request fanout histogram (Count)
system.membus.snoopFanout::2                        0      0.00%    100.00% # Request fanout histogram (Count)
system.membus.snoopFanout::overflows                0      0.00%    100.00% # Request fanout histogram (Count)
system.membus.snoopFanout::min_value                0                       # Request fanout histogram (Count)
system.membus.snoopFanout::max_value                1                       # Request fanout histogram (Count)
system.membus.snoopFanout::total               459578                       # Request fanout histogram (Count)
system.membus.power_state.pwrStateResidencyTicks::UNDEFINED 115531458308                       # Cumulative time (in ticks) in various power states (Tick)
system.membus.reqLayer2.occupancy         13732576677                       # Layer occupancy (ticks) (Tick)
system.membus.reqLayer2.utilization               0.1                       # Layer utilization (Ratio)
system.membus.respLayer2.occupancy         5695889177                       # Layer occupancy (ticks) (Tick)
system.membus.respLayer2.utilization              0.0                       # Layer utilization (Ratio)
system.membus.respLayer3.occupancy        25543180003                       # Layer occupancy (ticks) (Tick)
system.membus.respLayer3.utilization              0.2                       # Layer utilization (Ratio)
system.membus.snoop_filter.totRequests         919157                       # Total number of requests made to the snoop filter. (Count)
system.membus.snoop_filter.hitSingleRequests       459579                       # Number of requests hitting in the snoop filter with a single holder of the requested data. (Count)
system.membus.snoop_filter.hitMultiRequests          999                       # Number of requests hitting in the snoop filter with multiple (>1) holders of the requested data. (Count)
system.membus.snoop_filter.totSnoops                0                       # Total number of snoops made to the snoop filter. (Count)
system.membus.snoop_filter.hitSingleSnoops            0                       # Number of snoops hitting in the snoop filter with a single holder of the requested data. (Count)
system.membus.snoop_filter.hitMultiSnoops            0                       # Number of snoops hitting in the snoop filter with multiple (>1) holders of the requested data. (Count)
system.workload.inst.arm                            0                       # number of arm instructions executed (Count)
system.workload.inst.quiesce                        0                       # number of quiesce instructions executed (Count)

---------- End Simulation Statistics   ----------
