
---------- Begin Simulation Statistics ----------
simSeconds                                   1.071830                       # Number of seconds simulated (Second)
simTicks                                 1071829816918                       # Number of ticks simulated (Tick)
finalTick                                1071829816918                       # Number of ticks from beginning of simulation (restored from checkpoints and never reset) (Tick)
simFreq                                  1000000000000                       # The number of ticks per simulated second ((Tick/Second))
hostSeconds                                     75.70                       # Real time elapsed on the host (Second)
hostTickRate                              14159351671                       # The number of ticks simulated per host second (ticks/s) ((Tick/Second))
hostMemory                                    8623408                       # Number of bytes of host memory used (Byte)
simInsts                                     44990177                       # Number of instructions simulated (Count)
simOps                                       69733293                       # Number of ops (including micro ops) simulated (Count)
hostInstRate                                   594339                       # Simulator instruction rate (inst/s) ((Count/Second))
hostOpRate                                     921206                       # Simulator op (including micro ops) rate (op/s) ((Count/Second))
system.clk_domain.clock                         13333                       # Clock period in ticks (Tick)
system.clk_domain.voltage_domain.voltage            1                       # Voltage in Volts (Volt)
system.cpu.numCycles                         80389246                       # Number of cpu cycles simulated (Cycle)
system.cpu.cpi                               1.786808                       # CPI: cycles per instruction (core level) ((Cycle/Count))
system.cpu.ipc                               0.559657                       # IPC: instructions per cycle (core level) ((Count/Cycle))
system.cpu.numWorkItemsStarted                      0                       # Number of work items this cpu started (Count)
system.cpu.numWorkItemsCompleted                    0                       # Number of work items this cpu completed (Count)
system.cpu.commitStats0.numInsts             44990423                       # Number of instructions committed (thread level) (Count)
system.cpu.commitStats0.numOps               69733856                       # Number of ops (including micro ops) committed (thread level) (Count)
system.cpu.commitStats0.numInstsNotNOP              0                       # Number of instructions committed excluding NOPs or prefetches (Count)
system.cpu.commitStats0.numOpsNotNOP                0                       # Number of Ops (including micro ops) Simulated (Count)
system.cpu.commitStats0.cpi                  1.786808                       # CPI: cycles per instruction (thread level) ((Cycle/Count))
system.cpu.commitStats0.ipc                  0.559657                       # IPC: instructions per cycle (thread level) ((Count/Cycle))
system.cpu.commitStats0.numMemRefs                  0                       # Number of memory references committed (Count)
system.cpu.commitStats0.numFpInsts             982010                       # Number of float instructions (Count)
system.cpu.commitStats0.numIntInsts          69500238                       # Number of integer instructions (Count)
system.cpu.commitStats0.numLoadInsts          6397154                       # Number of load instructions (Count)
system.cpu.commitStats0.numStoreInsts         3416600                       # Number of store instructions (Count)
system.cpu.commitStats0.numVecInsts                 0                       # Number of vector instructions (Count)
system.cpu.commitStats0.committedInstType::No_OpClass        89428      0.13%      0.13% # Class of committed instruction. (Count)
system.cpu.commitStats0.committedInstType::IntAlu     59627800     85.51%     85.64% # Class of committed instruction. (Count)
system.cpu.commitStats0.committedInstType::IntMult          149      0.00%     85.64% # Class of committed instruction. (Count)
system.cpu.commitStats0.committedInstType::IntDiv        39169      0.06%     85.69% # Class of committed instruction. (Count)
system.cpu.commitStats0.committedInstType::FloatAdd        57326      0.08%     85.77% # Class of committed instruction. (Count)
system.cpu.commitStats0.committedInstType::FloatCmp            0      0.00%     85.77% # Class of committed instruction. (Count)
system.cpu.commitStats0.committedInstType::FloatCvt         1600      0.00%     85.78% # Class of committed instruction. (Count)
system.cpu.commitStats0.committedInstType::FloatMult            0      0.00%     85.78% # Class of committed instruction. (Count)
system.cpu.commitStats0.committedInstType::FloatMultAcc            0      0.00%     85.78% # Class of committed instruction. (Count)
system.cpu.commitStats0.committedInstType::FloatDiv            0      0.00%     85.78% # Class of committed instruction. (Count)
system.cpu.commitStats0.committedInstType::FloatMisc            0      0.00%     85.78% # Class of committed instruction. (Count)
system.cpu.commitStats0.committedInstType::FloatSqrt            0      0.00%     85.78% # Class of committed instruction. (Count)
system.cpu.commitStats0.committedInstType::SimdAdd         6582      0.01%     85.79% # Class of committed instruction. (Count)
system.cpu.commitStats0.committedInstType::SimdAddAcc            0      0.00%     85.79% # Class of committed instruction. (Count)
system.cpu.commitStats0.committedInstType::SimdAlu        13381      0.02%     85.81% # Class of committed instruction. (Count)
system.cpu.commitStats0.committedInstType::SimdCmp           12      0.00%     85.81% # Class of committed instruction. (Count)
system.cpu.commitStats0.committedInstType::SimdCvt        13670      0.02%     85.83% # Class of committed instruction. (Count)
system.cpu.commitStats0.committedInstType::SimdMisc        68912      0.10%     85.92% # Class of committed instruction. (Count)
system.cpu.commitStats0.committedInstType::SimdMult            0      0.00%     85.92% # Class of committed instruction. (Count)
system.cpu.commitStats0.committedInstType::SimdMultAcc            0      0.00%     85.92% # Class of committed instruction. (Count)
system.cpu.commitStats0.committedInstType::SimdMatMultAcc            0      0.00%     85.92% # Class of committed instruction. (Count)
system.cpu.commitStats0.committedInstType::SimdShift         1997      0.00%     85.93% # Class of committed instruction. (Count)
system.cpu.commitStats0.committedInstType::SimdShiftAcc            0      0.00%     85.93% # Class of committed instruction. (Count)
system.cpu.commitStats0.committedInstType::SimdDiv            0      0.00%     85.93% # Class of committed instruction. (Count)
system.cpu.commitStats0.committedInstType::SimdSqrt            0      0.00%     85.93% # Class of committed instruction. (Count)
system.cpu.commitStats0.committedInstType::SimdFloatAdd           19      0.00%     85.93% # Class of committed instruction. (Count)
system.cpu.commitStats0.committedInstType::SimdFloatAlu            0      0.00%     85.93% # Class of committed instruction. (Count)
system.cpu.commitStats0.committedInstType::SimdFloatCmp            0      0.00%     85.93% # Class of committed instruction. (Count)
system.cpu.commitStats0.committedInstType::SimdFloatCvt           38      0.00%     85.93% # Class of committed instruction. (Count)
system.cpu.commitStats0.committedInstType::SimdFloatDiv           19      0.00%     85.93% # Class of committed instruction. (Count)
system.cpu.commitStats0.committedInstType::SimdFloatMisc            0      0.00%     85.93% # Class of committed instruction. (Count)
system.cpu.commitStats0.committedInstType::SimdFloatMult            0      0.00%     85.93% # Class of committed instruction. (Count)
system.cpu.commitStats0.committedInstType::SimdFloatMultAcc            0      0.00%     85.93% # Class of committed instruction. (Count)
system.cpu.commitStats0.committedInstType::SimdFloatMatMultAcc            0      0.00%     85.93% # Class of committed instruction. (Count)
system.cpu.commitStats0.committedInstType::SimdFloatSqrt            0      0.00%     85.93% # Class of committed instruction. (Count)
system.cpu.commitStats0.committedInstType::SimdReduceAdd            0      0.00%     85.93% # Class of committed instruction. (Count)
system.cpu.commitStats0.committedInstType::SimdReduceAlu            0      0.00%     85.93% # Class of committed instruction. (Count)
system.cpu.commitStats0.committedInstType::SimdReduceCmp            0      0.00%     85.93% # Class of committed instruction. (Count)
system.cpu.commitStats0.committedInstType::SimdFloatReduceAdd            0      0.00%     85.93% # Class of committed instruction. (Count)
system.cpu.commitStats0.committedInstType::SimdFloatReduceCmp            0      0.00%     85.93% # Class of committed instruction. (Count)
system.cpu.commitStats0.committedInstType::SimdAes            0      0.00%     85.93% # Class of committed instruction. (Count)
system.cpu.commitStats0.committedInstType::SimdAesMix            0      0.00%     85.93% # Class of committed instruction. (Count)
system.cpu.commitStats0.committedInstType::SimdSha1Hash            0      0.00%     85.93% # Class of committed instruction. (Count)
system.cpu.commitStats0.committedInstType::SimdSha1Hash2            0      0.00%     85.93% # Class of committed instruction. (Count)
system.cpu.commitStats0.committedInstType::SimdSha256Hash            0      0.00%     85.93% # Class of committed instruction. (Count)
system.cpu.commitStats0.committedInstType::SimdSha256Hash2            0      0.00%     85.93% # Class of committed instruction. (Count)
system.cpu.commitStats0.committedInstType::SimdShaSigma2            0      0.00%     85.93% # Class of committed instruction. (Count)
system.cpu.commitStats0.committedInstType::SimdShaSigma3            0      0.00%     85.93% # Class of committed instruction. (Count)
system.cpu.commitStats0.committedInstType::SimdPredAlu            0      0.00%     85.93% # Class of committed instruction. (Count)
system.cpu.commitStats0.committedInstType::Matrix            0      0.00%     85.93% # Class of committed instruction. (Count)
system.cpu.commitStats0.committedInstType::MatrixMov            0      0.00%     85.93% # Class of committed instruction. (Count)
system.cpu.commitStats0.committedInstType::MatrixOP            0      0.00%     85.93% # Class of committed instruction. (Count)
system.cpu.commitStats0.committedInstType::MemRead      6330353      9.08%     95.00% # Class of committed instruction. (Count)
system.cpu.commitStats0.committedInstType::MemWrite      2686229      3.85%     98.86% # Class of committed instruction. (Count)
system.cpu.commitStats0.committedInstType::FloatMemRead        66801      0.10%     98.95% # Class of committed instruction. (Count)
system.cpu.commitStats0.committedInstType::FloatMemWrite       730371      1.05%    100.00% # Class of committed instruction. (Count)
system.cpu.commitStats0.committedInstType::IprAccess            0      0.00%    100.00% # Class of committed instruction. (Count)
system.cpu.commitStats0.committedInstType::InstPrefetch            0      0.00%    100.00% # Class of committed instruction. (Count)
system.cpu.commitStats0.committedInstType::SimdUnitStrideLoad            0      0.00%    100.00% # Class of committed instruction. (Count)
system.cpu.commitStats0.committedInstType::SimdUnitStrideStore            0      0.00%    100.00% # Class of committed instruction. (Count)
system.cpu.commitStats0.committedInstType::SimdUnitStrideMaskLoad            0      0.00%    100.00% # Class of committed instruction. (Count)
system.cpu.commitStats0.committedInstType::SimdUnitStrideMaskStore            0      0.00%    100.00% # Class of committed instruction. (Count)
system.cpu.commitStats0.committedInstType::SimdStridedLoad            0      0.00%    100.00% # Class of committed instruction. (Count)
system.cpu.commitStats0.committedInstType::SimdStridedStore            0      0.00%    100.00% # Class of committed instruction. (Count)
system.cpu.commitStats0.committedInstType::SimdIndexedLoad            0      0.00%    100.00% # Class of committed instruction. (Count)
system.cpu.commitStats0.committedInstType::SimdIndexedStore            0      0.00%    100.00% # Class of committed instruction. (Count)
system.cpu.commitStats0.committedInstType::SimdWholeRegisterLoad            0      0.00%    100.00% # Class of committed instruction. (Count)
system.cpu.commitStats0.committedInstType::SimdWholeRegisterStore            0      0.00%    100.00% # Class of committed instruction. (Count)
system.cpu.commitStats0.committedInstType::SimdUnitStrideFaultOnlyFirstLoad            0      0.00%    100.00% # Class of committed instruction. (Count)
system.cpu.commitStats0.committedInstType::SimdUnitStrideSegmentedLoad            0      0.00%    100.00% # Class of committed instruction. (Count)
system.cpu.commitStats0.committedInstType::SimdUnitStrideSegmentedStore            0      0.00%    100.00% # Class of committed instruction. (Count)
system.cpu.commitStats0.committedInstType::SimdExt            0      0.00%    100.00% # Class of committed instruction. (Count)
system.cpu.commitStats0.committedInstType::SimdFloatExt            0      0.00%    100.00% # Class of committed instruction. (Count)
system.cpu.commitStats0.committedInstType::SimdConfig            0      0.00%    100.00% # Class of committed instruction. (Count)
system.cpu.commitStats0.committedInstType::total     69733856                       # Class of committed instruction. (Count)
system.cpu.commitStats0.committedControl::IsControl      7076479                       # Class of control type instructions committed (Count)
system.cpu.commitStats0.committedControl::IsDirectControl      7046959                       # Class of control type instructions committed (Count)
system.cpu.commitStats0.committedControl::IsIndirectControl        29236                       # Class of control type instructions committed (Count)
system.cpu.commitStats0.committedControl::IsCondControl      6086073                       # Class of control type instructions committed (Count)
system.cpu.commitStats0.committedControl::IsUncondControl       990122                       # Class of control type instructions committed (Count)
system.cpu.commitStats0.committedControl::IsCall        23072                       # Class of control type instructions committed (Count)
system.cpu.commitStats0.committedControl::IsReturn        23067                       # Class of control type instructions committed (Count)
system.cpu.exec_context.thread_0.numMatAluAccesses            0                       # Number of matrix alu accesses (Count)
system.cpu.exec_context.thread_0.numCallsReturns        46139                       # Number of times a function call or return occured (Count)
system.cpu.exec_context.thread_0.numMatInsts            0                       # Number of matrix instructions (Count)
system.cpu.exec_context.thread_0.numIdleCycles            0                       # Number of idle cycles (Cycle)
system.cpu.exec_context.thread_0.numBusyCycles     80389246                       # Number of busy cycles (Cycle)
system.cpu.exec_context.thread_0.notIdleFraction            1                       # Percentage of non-idle cycles (Ratio)
system.cpu.exec_context.thread_0.idleFraction            0                       # Percentage of idle cycles (Ratio)
system.cpu.executeStats0.numInsts                   0                       # Number of executed instructions (Count)
system.cpu.executeStats0.numNop                     0                       # Number of nop insts executed (Count)
system.cpu.executeStats0.numBranches                0                       # Number of branches executed (Count)
system.cpu.executeStats0.numLoadInsts               0                       # Number of load instructions executed (Count)
system.cpu.executeStats0.numStoreInsts        9813754                       # Number of stores executed (Count)
system.cpu.executeStats0.instRate                   0                       # Inst execution rate ((Count/Cycle))
system.cpu.executeStats0.numFpAluAccesses       982010                       # Number of float alu accesses (Count)
system.cpu.executeStats0.numFpRegReads         949457                       # Number of times the floating registers were read (Count)
system.cpu.executeStats0.numFpRegWrites        242959                       # Number of times the floating registers were written (Count)
system.cpu.executeStats0.numIntAluAccesses     69500238                       # Number of integer alu accesses (Count)
system.cpu.executeStats0.numIntRegReads      87787980                       # Number of times the integer registers were read (Count)
system.cpu.executeStats0.numIntRegWrites     53136910                       # Number of times the integer registers were written (Count)
system.cpu.executeStats0.numMemRefs           9813754                       # Number of memory refs (Count)
system.cpu.executeStats0.numMiscRegReads     23940316                       # Number of times the Misc registers were read (Count)
system.cpu.executeStats0.numMiscRegWrites          900                       # Number of times the Misc registers were written (Count)
system.cpu.executeStats0.numVecAluAccesses            0                       # Number of vector alu accesses (Count)
system.cpu.executeStats0.numDiscardedOps            0                       # Number of ops (including micro ops) which were discarded before commit (Count)
system.cpu.fetchStats0.numInsts              44990423                       # Number of instructions fetched (thread level) (Count)
system.cpu.fetchStats0.numOps                69733856                       # Number of ops (including micro ops) fetched (thread level) (Count)
system.cpu.fetchStats0.fetchRate             0.559657                       # Number of inst fetches per cycle ((Count/Cycle))
system.cpu.fetchStats0.numBranches            7076479                       # Number of branches fetched (Count)
system.cpu.fetchStats0.branchRate            0.088028                       # Number of branch fetches per cycle (Ratio)
system.cpu.fetchStats0.numFetchSuspends             0                       # Number of times Execute suspended instruction fetching (Count)
system.cpu.interrupts.clk_domain.clock         213328                       # Clock period in ticks (Tick)
system.cpu.l1d.demandHits::cpu.data           8887438                       # number of demand (read+write) hits (Count)
system.cpu.l1d.demandHits::total              8887438                       # number of demand (read+write) hits (Count)
system.cpu.l1d.overallHits::cpu.data          8887438                       # number of overall hits (Count)
system.cpu.l1d.overallHits::total             8887438                       # number of overall hits (Count)
system.cpu.l1d.demandMisses::cpu.data          930905                       # number of demand (read+write) misses (Count)
system.cpu.l1d.demandMisses::total             930905                       # number of demand (read+write) misses (Count)
system.cpu.l1d.overallMisses::cpu.data         930905                       # number of overall misses (Count)
system.cpu.l1d.overallMisses::total            930905                       # number of overall misses (Count)
system.cpu.l1d.demandMissLatency::cpu.data 196239533889                       # number of demand (read+write) miss ticks (Tick)
system.cpu.l1d.demandMissLatency::total  196239533889                       # number of demand (read+write) miss ticks (Tick)
system.cpu.l1d.overallMissLatency::cpu.data 196239533889                       # number of overall miss ticks (Tick)
system.cpu.l1d.overallMissLatency::total 196239533889                       # number of overall miss ticks (Tick)
system.cpu.l1d.demandAccesses::cpu.data       9818343                       # number of demand (read+write) accesses (Count)
system.cpu.l1d.demandAccesses::total          9818343                       # number of demand (read+write) accesses (Count)
system.cpu.l1d.overallAccesses::cpu.data      9818343                       # number of overall (read+write) accesses (Count)
system.cpu.l1d.overallAccesses::total         9818343                       # number of overall (read+write) accesses (Count)
system.cpu.l1d.demandMissRate::cpu.data      0.094813                       # miss rate for demand accesses (Ratio)
system.cpu.l1d.demandMissRate::total         0.094813                       # miss rate for demand accesses (Ratio)
system.cpu.l1d.overallMissRate::cpu.data     0.094813                       # miss rate for overall accesses (Ratio)
system.cpu.l1d.overallMissRate::total        0.094813                       # miss rate for overall accesses (Ratio)
system.cpu.l1d.demandAvgMissLatency::cpu.data 210805.113184                       # average overall miss latency in ticks ((Tick/Count))
system.cpu.l1d.demandAvgMissLatency::total 210805.113184                       # average overall miss latency in ticks ((Tick/Count))
system.cpu.l1d.overallAvgMissLatency::cpu.data 210805.113184                       # average overall miss latency ((Tick/Count))
system.cpu.l1d.overallAvgMissLatency::total 210805.113184                       # average overall miss latency ((Tick/Count))
system.cpu.l1d.blockedCycles::no_mshrs              0                       # number of cycles access was blocked (Cycle)
system.cpu.l1d.blockedCycles::no_targets            0                       # number of cycles access was blocked (Cycle)
system.cpu.l1d.blockedCauses::no_mshrs              0                       # number of times access was blocked (Count)
system.cpu.l1d.blockedCauses::no_targets            0                       # number of times access was blocked (Count)
system.cpu.l1d.avgBlocked::no_mshrs               nan                       # average number of cycles each access was blocked ((Cycle/Count))
system.cpu.l1d.avgBlocked::no_targets             nan                       # average number of cycles each access was blocked ((Cycle/Count))
system.cpu.l1d.writebacks::writebacks          979904                       # number of writebacks (Count)
system.cpu.l1d.writebacks::total               979904                       # number of writebacks (Count)
system.cpu.l1d.demandMshrHits::cpu.data           316                       # number of demand (read+write) MSHR hits (Count)
system.cpu.l1d.demandMshrHits::total              316                       # number of demand (read+write) MSHR hits (Count)
system.cpu.l1d.overallMshrHits::cpu.data          316                       # number of overall MSHR hits (Count)
system.cpu.l1d.overallMshrHits::total             316                       # number of overall MSHR hits (Count)
system.cpu.l1d.demandMshrMisses::cpu.data       930589                       # number of demand (read+write) MSHR misses (Count)
system.cpu.l1d.demandMshrMisses::total         930589                       # number of demand (read+write) MSHR misses (Count)
system.cpu.l1d.overallMshrMisses::cpu.data       930589                       # number of overall MSHR misses (Count)
system.cpu.l1d.overallMshrMisses::cpu.l1d.prefetcher      1134064                       # number of overall MSHR misses (Count)
system.cpu.l1d.overallMshrMisses::total       2064653                       # number of overall MSHR misses (Count)
system.cpu.l1d.demandMshrMissLatency::cpu.data 183786151898                       # number of demand (read+write) MSHR miss ticks (Tick)
system.cpu.l1d.demandMshrMissLatency::total 183786151898                       # number of demand (read+write) MSHR miss ticks (Tick)
system.cpu.l1d.overallMshrMissLatency::cpu.data 183786151898                       # number of overall MSHR miss ticks (Tick)
system.cpu.l1d.overallMshrMissLatency::cpu.l1d.prefetcher 334919552301                       # number of overall MSHR miss ticks (Tick)
system.cpu.l1d.overallMshrMissLatency::total 518705704199                       # number of overall MSHR miss ticks (Tick)
system.cpu.l1d.demandMshrMissRate::cpu.data     0.094781                       # mshr miss ratio for demand accesses (Ratio)
system.cpu.l1d.demandMshrMissRate::total     0.094781                       # mshr miss ratio for demand accesses (Ratio)
system.cpu.l1d.overallMshrMissRate::cpu.data     0.094781                       # mshr miss ratio for overall accesses (Ratio)
system.cpu.l1d.overallMshrMissRate::cpu.l1d.prefetcher          inf                       # mshr miss ratio for overall accesses (Ratio)
system.cpu.l1d.overallMshrMissRate::total     0.210285                       # mshr miss ratio for overall accesses (Ratio)
system.cpu.l1d.demandAvgMshrMissLatency::cpu.data 197494.438359                       # average overall mshr miss latency ((Tick/Count))
system.cpu.l1d.demandAvgMshrMissLatency::total 197494.438359                       # average overall mshr miss latency ((Tick/Count))
system.cpu.l1d.overallAvgMshrMissLatency::cpu.data 197494.438359                       # average overall mshr miss latency ((Tick/Count))
system.cpu.l1d.overallAvgMshrMissLatency::cpu.l1d.prefetcher 295326.853071                       # average overall mshr miss latency ((Tick/Count))
system.cpu.l1d.overallAvgMshrMissLatency::total 251231.419613                       # average overall mshr miss latency ((Tick/Count))
system.cpu.l1d.replacements                   2064649                       # number of replacements (Count)
system.cpu.l1d.HardPFReq.mshrMisses::cpu.l1d.prefetcher      1134064                       # number of HardPFReq MSHR misses (Count)
system.cpu.l1d.HardPFReq.mshrMisses::total      1134064                       # number of HardPFReq MSHR misses (Count)
system.cpu.l1d.HardPFReq.mshrMissLatency::cpu.l1d.prefetcher 334919552301                       # number of HardPFReq MSHR miss ticks (Tick)
system.cpu.l1d.HardPFReq.mshrMissLatency::total 334919552301                       # number of HardPFReq MSHR miss ticks (Tick)
system.cpu.l1d.HardPFReq.mshrMissRate::cpu.l1d.prefetcher          inf                       # mshr miss rate for HardPFReq accesses (Ratio)
system.cpu.l1d.HardPFReq.mshrMissRate::total          inf                       # mshr miss rate for HardPFReq accesses (Ratio)
system.cpu.l1d.HardPFReq.avgMshrMissLatency::cpu.l1d.prefetcher 295326.853071                       # average HardPFReq mshr miss latency ((Tick/Count))
system.cpu.l1d.HardPFReq.avgMshrMissLatency::total 295326.853071                       # average HardPFReq mshr miss latency ((Tick/Count))
system.cpu.l1d.LockedRMWReadReq.hits::cpu.data          434                       # number of LockedRMWReadReq hits (Count)
system.cpu.l1d.LockedRMWReadReq.hits::total          434                       # number of LockedRMWReadReq hits (Count)
system.cpu.l1d.LockedRMWReadReq.misses::cpu.data           60                       # number of LockedRMWReadReq misses (Count)
system.cpu.l1d.LockedRMWReadReq.misses::total           60                       # number of LockedRMWReadReq misses (Count)
system.cpu.l1d.LockedRMWReadReq.missLatency::cpu.data     12679683                       # number of LockedRMWReadReq miss ticks (Tick)
system.cpu.l1d.LockedRMWReadReq.missLatency::total     12679683                       # number of LockedRMWReadReq miss ticks (Tick)
system.cpu.l1d.LockedRMWReadReq.accesses::cpu.data          494                       # number of LockedRMWReadReq accesses(hits+misses) (Count)
system.cpu.l1d.LockedRMWReadReq.accesses::total          494                       # number of LockedRMWReadReq accesses(hits+misses) (Count)
system.cpu.l1d.LockedRMWReadReq.missRate::cpu.data     0.121457                       # miss rate for LockedRMWReadReq accesses (Ratio)
system.cpu.l1d.LockedRMWReadReq.missRate::total     0.121457                       # miss rate for LockedRMWReadReq accesses (Ratio)
system.cpu.l1d.LockedRMWReadReq.avgMissLatency::cpu.data 211328.050000                       # average LockedRMWReadReq miss latency ((Tick/Count))
system.cpu.l1d.LockedRMWReadReq.avgMissLatency::total 211328.050000                       # average LockedRMWReadReq miss latency ((Tick/Count))
system.cpu.l1d.LockedRMWReadReq.mshrMisses::cpu.data           60                       # number of LockedRMWReadReq MSHR misses (Count)
system.cpu.l1d.LockedRMWReadReq.mshrMisses::total           60                       # number of LockedRMWReadReq MSHR misses (Count)
system.cpu.l1d.LockedRMWReadReq.mshrMissLatency::cpu.data     30345908                       # number of LockedRMWReadReq MSHR miss ticks (Tick)
system.cpu.l1d.LockedRMWReadReq.mshrMissLatency::total     30345908                       # number of LockedRMWReadReq MSHR miss ticks (Tick)
system.cpu.l1d.LockedRMWReadReq.mshrMissRate::cpu.data     0.121457                       # mshr miss rate for LockedRMWReadReq accesses (Ratio)
system.cpu.l1d.LockedRMWReadReq.mshrMissRate::total     0.121457                       # mshr miss rate for LockedRMWReadReq accesses (Ratio)
system.cpu.l1d.LockedRMWReadReq.avgMshrMissLatency::cpu.data 505765.133333                       # average LockedRMWReadReq mshr miss latency ((Tick/Count))
system.cpu.l1d.LockedRMWReadReq.avgMshrMissLatency::total 505765.133333                       # average LockedRMWReadReq mshr miss latency ((Tick/Count))
system.cpu.l1d.LockedRMWWriteReq.hits::cpu.data          494                       # number of LockedRMWWriteReq hits (Count)
system.cpu.l1d.LockedRMWWriteReq.hits::total          494                       # number of LockedRMWWriteReq hits (Count)
system.cpu.l1d.LockedRMWWriteReq.accesses::cpu.data          494                       # number of LockedRMWWriteReq accesses(hits+misses) (Count)
system.cpu.l1d.LockedRMWWriteReq.accesses::total          494                       # number of LockedRMWWriteReq accesses(hits+misses) (Count)
system.cpu.l1d.ReadReq.hits::cpu.data         5603795                       # number of ReadReq hits (Count)
system.cpu.l1d.ReadReq.hits::total            5603795                       # number of ReadReq hits (Count)
system.cpu.l1d.ReadReq.misses::cpu.data        795545                       # number of ReadReq misses (Count)
system.cpu.l1d.ReadReq.misses::total           795545                       # number of ReadReq misses (Count)
system.cpu.l1d.ReadReq.missLatency::cpu.data 168902044010                       # number of ReadReq miss ticks (Tick)
system.cpu.l1d.ReadReq.missLatency::total 168902044010                       # number of ReadReq miss ticks (Tick)
system.cpu.l1d.ReadReq.accesses::cpu.data      6399340                       # number of ReadReq accesses(hits+misses) (Count)
system.cpu.l1d.ReadReq.accesses::total        6399340                       # number of ReadReq accesses(hits+misses) (Count)
system.cpu.l1d.ReadReq.missRate::cpu.data     0.124317                       # miss rate for ReadReq accesses (Ratio)
system.cpu.l1d.ReadReq.missRate::total       0.124317                       # miss rate for ReadReq accesses (Ratio)
system.cpu.l1d.ReadReq.avgMissLatency::cpu.data 212309.855520                       # average ReadReq miss latency ((Tick/Count))
system.cpu.l1d.ReadReq.avgMissLatency::total 212309.855520                       # average ReadReq miss latency ((Tick/Count))
system.cpu.l1d.ReadReq.mshrHits::cpu.data          311                       # number of ReadReq MSHR hits (Count)
system.cpu.l1d.ReadReq.mshrHits::total            311                       # number of ReadReq MSHR hits (Count)
system.cpu.l1d.ReadReq.mshrMisses::cpu.data       795234                       # number of ReadReq MSHR misses (Count)
system.cpu.l1d.ReadReq.mshrMisses::total       795234                       # number of ReadReq MSHR misses (Count)
system.cpu.l1d.ReadReq.mshrMissLatency::cpu.data 158253883554                       # number of ReadReq MSHR miss ticks (Tick)
system.cpu.l1d.ReadReq.mshrMissLatency::total 158253883554                       # number of ReadReq MSHR miss ticks (Tick)
system.cpu.l1d.ReadReq.mshrMissRate::cpu.data     0.124268                       # mshr miss rate for ReadReq accesses (Ratio)
system.cpu.l1d.ReadReq.mshrMissRate::total     0.124268                       # mshr miss rate for ReadReq accesses (Ratio)
system.cpu.l1d.ReadReq.avgMshrMissLatency::cpu.data 199002.914304                       # average ReadReq mshr miss latency ((Tick/Count))
system.cpu.l1d.ReadReq.avgMshrMissLatency::total 199002.914304                       # average ReadReq mshr miss latency ((Tick/Count))
system.cpu.l1d.WriteReq.hits::cpu.data        3283643                       # number of WriteReq hits (Count)
system.cpu.l1d.WriteReq.hits::total           3283643                       # number of WriteReq hits (Count)
system.cpu.l1d.WriteReq.misses::cpu.data       135360                       # number of WriteReq misses (Count)
system.cpu.l1d.WriteReq.misses::total          135360                       # number of WriteReq misses (Count)
system.cpu.l1d.WriteReq.missLatency::cpu.data  27337489879                       # number of WriteReq miss ticks (Tick)
system.cpu.l1d.WriteReq.missLatency::total  27337489879                       # number of WriteReq miss ticks (Tick)
system.cpu.l1d.WriteReq.accesses::cpu.data      3419003                       # number of WriteReq accesses(hits+misses) (Count)
system.cpu.l1d.WriteReq.accesses::total       3419003                       # number of WriteReq accesses(hits+misses) (Count)
system.cpu.l1d.WriteReq.missRate::cpu.data     0.039590                       # miss rate for WriteReq accesses (Ratio)
system.cpu.l1d.WriteReq.missRate::total      0.039590                       # miss rate for WriteReq accesses (Ratio)
system.cpu.l1d.WriteReq.avgMissLatency::cpu.data 201961.361399                       # average WriteReq miss latency ((Tick/Count))
system.cpu.l1d.WriteReq.avgMissLatency::total 201961.361399                       # average WriteReq miss latency ((Tick/Count))
system.cpu.l1d.WriteReq.mshrHits::cpu.data            5                       # number of WriteReq MSHR hits (Count)
system.cpu.l1d.WriteReq.mshrHits::total             5                       # number of WriteReq MSHR hits (Count)
system.cpu.l1d.WriteReq.mshrMisses::cpu.data       135355                       # number of WriteReq MSHR misses (Count)
system.cpu.l1d.WriteReq.mshrMisses::total       135355                       # number of WriteReq MSHR misses (Count)
system.cpu.l1d.WriteReq.mshrMissLatency::cpu.data  25532268344                       # number of WriteReq MSHR miss ticks (Tick)
system.cpu.l1d.WriteReq.mshrMissLatency::total  25532268344                       # number of WriteReq MSHR miss ticks (Tick)
system.cpu.l1d.WriteReq.mshrMissRate::cpu.data     0.039589                       # mshr miss rate for WriteReq accesses (Ratio)
system.cpu.l1d.WriteReq.mshrMissRate::total     0.039589                       # mshr miss rate for WriteReq accesses (Ratio)
system.cpu.l1d.WriteReq.avgMshrMissLatency::cpu.data 188631.881674                       # average WriteReq mshr miss latency ((Tick/Count))
system.cpu.l1d.WriteReq.avgMshrMissLatency::total 188631.881674                       # average WriteReq mshr miss latency ((Tick/Count))
system.cpu.l1d.power_state.pwrStateResidencyTicks::UNDEFINED 1071829816918                       # Cumulative time (in ticks) in various power states (Tick)
system.cpu.l1d.prefetcher.demandMshrMisses       930589                       # demands not covered by prefetchs (Count)
system.cpu.l1d.prefetcher.pfIssued            2535532                       # number of hwpf issued (Count)
system.cpu.l1d.prefetcher.pfUnused              92482                       # number of HardPF blocks evicted w/o reference (Count)
system.cpu.l1d.prefetcher.pfUseful            1041264                       # number of useful prefetch (Count)
system.cpu.l1d.prefetcher.pfUsefulButMiss            0                       # number of hit on prefetch but cache block is not in an usable state (Count)
system.cpu.l1d.prefetcher.accuracy           0.410669                       # accuracy of the prefetcher (Count)
system.cpu.l1d.prefetcher.coverage           0.528064                       # coverage brought by this prefetcher (Count)
system.cpu.l1d.prefetcher.pfHitInCache        1372607                       # number of prefetches hitting in cache (Count)
system.cpu.l1d.prefetcher.pfHitInMSHR           28859                       # number of prefetches hitting in a MSHR (Count)
system.cpu.l1d.prefetcher.pfHitInWB                 2                       # number of prefetches hit in the Write Buffer (Count)
system.cpu.l1d.prefetcher.pfLate              1401468                       # number of late prefetches (hitting in cache, MSHR or WB) (Count)
system.cpu.l1d.prefetcher.pfIdentified        2535532                       # number of prefetch candidates identified (Count)
system.cpu.l1d.prefetcher.pfBufferHit               0                       # number of redundant prefetches already in prefetch queue (Count)
system.cpu.l1d.prefetcher.pfInCache                 0                       # number of redundant prefetches already in cache/mshr dropped (Count)
system.cpu.l1d.prefetcher.pfRemovedDemand            0                       # number of prefetches dropped due to a demand for the same address (Count)
system.cpu.l1d.prefetcher.pfRemovedFull             0                       # number of prefetches dropped due to prefetch queue size (Count)
system.cpu.l1d.prefetcher.pfSpanPage          3044464                       # number of prefetches that crossed the page (Count)
system.cpu.l1d.prefetcher.pfUsefulSpanPage      2605402                       # number of prefetches that is useful and crossed the page (Count)
system.cpu.l1d.prefetcher.power_state.pwrStateResidencyTicks::UNDEFINED 1071829816918                       # Cumulative time (in ticks) in various power states (Tick)
system.cpu.l1d.tags.tagsInUse               63.998899                       # Average ticks per tags in use ((Tick/Count))
system.cpu.l1d.tags.totalRefs                10952017                       # Total number of references to valid blocks. (Count)
system.cpu.l1d.tags.sampledRefs               2064649                       # Sample count of references to valid blocks. (Count)
system.cpu.l1d.tags.avgRefs                  5.304542                       # Average number of references to valid blocks. ((Count/Count))
system.cpu.l1d.tags.warmupTick                 479988                       # The tick when the warmup percentage was hit. (Tick)
system.cpu.l1d.tags.occupancies::cpu.data    33.804914                       # Average occupied blocks per tick, per requestor ((Count/Tick))
system.cpu.l1d.tags.occupancies::cpu.l1d.prefetcher    30.193985                       # Average occupied blocks per tick, per requestor ((Count/Tick))
system.cpu.l1d.tags.avgOccs::cpu.data        0.528202                       # Average percentage of cache occupancy ((Ratio/Tick))
system.cpu.l1d.tags.avgOccs::cpu.l1d.prefetcher     0.471781                       # Average percentage of cache occupancy ((Ratio/Tick))
system.cpu.l1d.tags.avgOccs::total           0.999983                       # Average percentage of cache occupancy ((Ratio/Tick))
system.cpu.l1d.tags.occupanciesTaskId::1022           22                       # Occupied blocks per task id (Count)
system.cpu.l1d.tags.occupanciesTaskId::1024           42                       # Occupied blocks per task id (Count)
system.cpu.l1d.tags.ageTaskId_1022::1              15                       # Occupied blocks per task id, per block age (Count)
system.cpu.l1d.tags.ageTaskId_1022::2               7                       # Occupied blocks per task id, per block age (Count)
system.cpu.l1d.tags.ageTaskId_1024::0              10                       # Occupied blocks per task id, per block age (Count)
system.cpu.l1d.tags.ageTaskId_1024::1              29                       # Occupied blocks per task id, per block age (Count)
system.cpu.l1d.tags.ageTaskId_1024::2               3                       # Occupied blocks per task id, per block age (Count)
system.cpu.l1d.tags.ratioOccsTaskId::1022     0.343750                       # Ratio of occupied blocks and all blocks, per task id (Ratio)
system.cpu.l1d.tags.ratioOccsTaskId::1024     0.656250                       # Ratio of occupied blocks and all blocks, per task id (Ratio)
system.cpu.l1d.tags.tagAccesses              21703375                       # Number of tag accesses (Count)
system.cpu.l1d.tags.dataAccesses             21703375                       # Number of data accesses (Count)
system.cpu.l1d.tags.power_state.pwrStateResidencyTicks::UNDEFINED 1071829816918                       # Cumulative time (in ticks) in various power states (Tick)
system.cpu.l1i.demandHits::cpu.inst          55582004                       # number of demand (read+write) hits (Count)
system.cpu.l1i.demandHits::total             55582004                       # number of demand (read+write) hits (Count)
system.cpu.l1i.overallHits::cpu.inst         55582004                       # number of overall hits (Count)
system.cpu.l1i.overallHits::total            55582004                       # number of overall hits (Count)
system.cpu.l1i.demandMisses::cpu.inst           60256                       # number of demand (read+write) misses (Count)
system.cpu.l1i.demandMisses::total              60256                       # number of demand (read+write) misses (Count)
system.cpu.l1i.overallMisses::cpu.inst          60256                       # number of overall misses (Count)
system.cpu.l1i.overallMisses::total             60256                       # number of overall misses (Count)
system.cpu.l1i.demandMissLatency::cpu.inst  12863238411                       # number of demand (read+write) miss ticks (Tick)
system.cpu.l1i.demandMissLatency::total   12863238411                       # number of demand (read+write) miss ticks (Tick)
system.cpu.l1i.overallMissLatency::cpu.inst  12863238411                       # number of overall miss ticks (Tick)
system.cpu.l1i.overallMissLatency::total  12863238411                       # number of overall miss ticks (Tick)
system.cpu.l1i.demandAccesses::cpu.inst      55642260                       # number of demand (read+write) accesses (Count)
system.cpu.l1i.demandAccesses::total         55642260                       # number of demand (read+write) accesses (Count)
system.cpu.l1i.overallAccesses::cpu.inst     55642260                       # number of overall (read+write) accesses (Count)
system.cpu.l1i.overallAccesses::total        55642260                       # number of overall (read+write) accesses (Count)
system.cpu.l1i.demandMissRate::cpu.inst      0.001083                       # miss rate for demand accesses (Ratio)
system.cpu.l1i.demandMissRate::total         0.001083                       # miss rate for demand accesses (Ratio)
system.cpu.l1i.overallMissRate::cpu.inst     0.001083                       # miss rate for overall accesses (Ratio)
system.cpu.l1i.overallMissRate::total        0.001083                       # miss rate for overall accesses (Ratio)
system.cpu.l1i.demandAvgMissLatency::cpu.inst 213476.473895                       # average overall miss latency in ticks ((Tick/Count))
system.cpu.l1i.demandAvgMissLatency::total 213476.473895                       # average overall miss latency in ticks ((Tick/Count))
system.cpu.l1i.overallAvgMissLatency::cpu.inst 213476.473895                       # average overall miss latency ((Tick/Count))
system.cpu.l1i.overallAvgMissLatency::total 213476.473895                       # average overall miss latency ((Tick/Count))
system.cpu.l1i.blockedCycles::no_mshrs              0                       # number of cycles access was blocked (Cycle)
system.cpu.l1i.blockedCycles::no_targets            0                       # number of cycles access was blocked (Cycle)
system.cpu.l1i.blockedCauses::no_mshrs              0                       # number of times access was blocked (Count)
system.cpu.l1i.blockedCauses::no_targets            0                       # number of times access was blocked (Count)
system.cpu.l1i.avgBlocked::no_mshrs               nan                       # average number of cycles each access was blocked ((Cycle/Count))
system.cpu.l1i.avgBlocked::no_targets             nan                       # average number of cycles each access was blocked ((Cycle/Count))
system.cpu.l1i.demandMshrMisses::cpu.inst        60256                       # number of demand (read+write) MSHR misses (Count)
system.cpu.l1i.demandMshrMisses::total          60256                       # number of demand (read+write) MSHR misses (Count)
system.cpu.l1i.overallMshrMisses::cpu.inst        60256                       # number of overall MSHR misses (Count)
system.cpu.l1i.overallMshrMisses::total         60256                       # number of overall MSHR misses (Count)
system.cpu.l1i.demandMshrMissLatency::cpu.inst  12059845163                       # number of demand (read+write) MSHR miss ticks (Tick)
system.cpu.l1i.demandMshrMissLatency::total  12059845163                       # number of demand (read+write) MSHR miss ticks (Tick)
system.cpu.l1i.overallMshrMissLatency::cpu.inst  12059845163                       # number of overall MSHR miss ticks (Tick)
system.cpu.l1i.overallMshrMissLatency::total  12059845163                       # number of overall MSHR miss ticks (Tick)
system.cpu.l1i.demandMshrMissRate::cpu.inst     0.001083                       # mshr miss ratio for demand accesses (Ratio)
system.cpu.l1i.demandMshrMissRate::total     0.001083                       # mshr miss ratio for demand accesses (Ratio)
system.cpu.l1i.overallMshrMissRate::cpu.inst     0.001083                       # mshr miss ratio for overall accesses (Ratio)
system.cpu.l1i.overallMshrMissRate::total     0.001083                       # mshr miss ratio for overall accesses (Ratio)
system.cpu.l1i.demandAvgMshrMissLatency::cpu.inst 200143.473895                       # average overall mshr miss latency ((Tick/Count))
system.cpu.l1i.demandAvgMshrMissLatency::total 200143.473895                       # average overall mshr miss latency ((Tick/Count))
system.cpu.l1i.overallAvgMshrMissLatency::cpu.inst 200143.473895                       # average overall mshr miss latency ((Tick/Count))
system.cpu.l1i.overallAvgMshrMissLatency::total 200143.473895                       # average overall mshr miss latency ((Tick/Count))
system.cpu.l1i.replacements                     60192                       # number of replacements (Count)
system.cpu.l1i.ReadReq.hits::cpu.inst        55582004                       # number of ReadReq hits (Count)
system.cpu.l1i.ReadReq.hits::total           55582004                       # number of ReadReq hits (Count)
system.cpu.l1i.ReadReq.misses::cpu.inst         60256                       # number of ReadReq misses (Count)
system.cpu.l1i.ReadReq.misses::total            60256                       # number of ReadReq misses (Count)
system.cpu.l1i.ReadReq.missLatency::cpu.inst  12863238411                       # number of ReadReq miss ticks (Tick)
system.cpu.l1i.ReadReq.missLatency::total  12863238411                       # number of ReadReq miss ticks (Tick)
system.cpu.l1i.ReadReq.accesses::cpu.inst     55642260                       # number of ReadReq accesses(hits+misses) (Count)
system.cpu.l1i.ReadReq.accesses::total       55642260                       # number of ReadReq accesses(hits+misses) (Count)
system.cpu.l1i.ReadReq.missRate::cpu.inst     0.001083                       # miss rate for ReadReq accesses (Ratio)
system.cpu.l1i.ReadReq.missRate::total       0.001083                       # miss rate for ReadReq accesses (Ratio)
system.cpu.l1i.ReadReq.avgMissLatency::cpu.inst 213476.473895                       # average ReadReq miss latency ((Tick/Count))
system.cpu.l1i.ReadReq.avgMissLatency::total 213476.473895                       # average ReadReq miss latency ((Tick/Count))
system.cpu.l1i.ReadReq.mshrMisses::cpu.inst        60256                       # number of ReadReq MSHR misses (Count)
system.cpu.l1i.ReadReq.mshrMisses::total        60256                       # number of ReadReq MSHR misses (Count)
system.cpu.l1i.ReadReq.mshrMissLatency::cpu.inst  12059845163                       # number of ReadReq MSHR miss ticks (Tick)
system.cpu.l1i.ReadReq.mshrMissLatency::total  12059845163                       # number of ReadReq MSHR miss ticks (Tick)
system.cpu.l1i.ReadReq.mshrMissRate::cpu.inst     0.001083                       # mshr miss rate for ReadReq accesses (Ratio)
system.cpu.l1i.ReadReq.mshrMissRate::total     0.001083                       # mshr miss rate for ReadReq accesses (Ratio)
system.cpu.l1i.ReadReq.avgMshrMissLatency::cpu.inst 200143.473895                       # average ReadReq mshr miss latency ((Tick/Count))
system.cpu.l1i.ReadReq.avgMshrMissLatency::total 200143.473895                       # average ReadReq mshr miss latency ((Tick/Count))
system.cpu.l1i.power_state.pwrStateResidencyTicks::UNDEFINED 1071829816918                       # Cumulative time (in ticks) in various power states (Tick)
system.cpu.l1i.prefetcher.demandMshrMisses        60256                       # demands not covered by prefetchs (Count)
system.cpu.l1i.prefetcher.pfIssued                  0                       # number of hwpf issued (Count)
system.cpu.l1i.prefetcher.pfUseful                  0                       # number of useful prefetch (Count)
system.cpu.l1i.prefetcher.pfUsefulButMiss            0                       # number of hit on prefetch but cache block is not in an usable state (Count)
system.cpu.l1i.prefetcher.accuracy                nan                       # accuracy of the prefetcher (Count)
system.cpu.l1i.prefetcher.coverage                  0                       # coverage brought by this prefetcher (Count)
system.cpu.l1i.prefetcher.pfHitInCache              0                       # number of prefetches hitting in cache (Count)
system.cpu.l1i.prefetcher.pfHitInMSHR               0                       # number of prefetches hitting in a MSHR (Count)
system.cpu.l1i.prefetcher.pfHitInWB                 0                       # number of prefetches hit in the Write Buffer (Count)
system.cpu.l1i.prefetcher.pfLate                    0                       # number of late prefetches (hitting in cache, MSHR or WB) (Count)
system.cpu.l1i.prefetcher.pfIdentified              0                       # number of prefetch candidates identified (Count)
system.cpu.l1i.prefetcher.pfBufferHit               0                       # number of redundant prefetches already in prefetch queue (Count)
system.cpu.l1i.prefetcher.pfInCache                 0                       # number of redundant prefetches already in cache/mshr dropped (Count)
system.cpu.l1i.prefetcher.pfRemovedDemand            0                       # number of prefetches dropped due to a demand for the same address (Count)
system.cpu.l1i.prefetcher.pfRemovedFull             0                       # number of prefetches dropped due to prefetch queue size (Count)
system.cpu.l1i.prefetcher.pfSpanPage                0                       # number of prefetches that crossed the page (Count)
system.cpu.l1i.prefetcher.pfUsefulSpanPage            0                       # number of prefetches that is useful and crossed the page (Count)
system.cpu.l1i.prefetcher.power_state.pwrStateResidencyTicks::UNDEFINED 1071829816918                       # Cumulative time (in ticks) in various power states (Tick)
system.cpu.l1i.tags.tagsInUse               63.996428                       # Average ticks per tags in use ((Tick/Count))
system.cpu.l1i.tags.totalRefs                55116714                       # Total number of references to valid blocks. (Count)
system.cpu.l1i.tags.sampledRefs                 60192                       # Sample count of references to valid blocks. (Count)
system.cpu.l1i.tags.avgRefs                915.681719                       # Average number of references to valid blocks. ((Count/Count))
system.cpu.l1i.tags.warmupTick                 199995                       # The tick when the warmup percentage was hit. (Tick)
system.cpu.l1i.tags.occupancies::cpu.inst    63.996428                       # Average occupied blocks per tick, per requestor ((Count/Tick))
system.cpu.l1i.tags.avgOccs::cpu.inst        0.999944                       # Average percentage of cache occupancy ((Ratio/Tick))
system.cpu.l1i.tags.avgOccs::total           0.999944                       # Average percentage of cache occupancy ((Ratio/Tick))
system.cpu.l1i.tags.occupanciesTaskId::1024           64                       # Occupied blocks per task id (Count)
system.cpu.l1i.tags.ageTaskId_1024::0              10                       # Occupied blocks per task id, per block age (Count)
system.cpu.l1i.tags.ageTaskId_1024::1              28                       # Occupied blocks per task id, per block age (Count)
system.cpu.l1i.tags.ageTaskId_1024::3               5                       # Occupied blocks per task id, per block age (Count)
system.cpu.l1i.tags.ageTaskId_1024::4              21                       # Occupied blocks per task id, per block age (Count)
system.cpu.l1i.tags.ratioOccsTaskId::1024            1                       # Ratio of occupied blocks and all blocks, per task id (Ratio)
system.cpu.l1i.tags.tagAccesses             111344776                       # Number of tag accesses (Count)
system.cpu.l1i.tags.dataAccesses            111344776                       # Number of data accesses (Count)
system.cpu.l1i.tags.power_state.pwrStateResidencyTicks::UNDEFINED 1071829816918                       # Cumulative time (in ticks) in various power states (Tick)
system.cpu.mmu.dtb.rdAccesses                 6400084                       # TLB accesses on read requests (Count)
system.cpu.mmu.dtb.wrAccesses                 3419693                       # TLB accesses on write requests (Count)
system.cpu.mmu.dtb.rdMisses                     23278                       # TLB misses on read requests (Count)
system.cpu.mmu.dtb.wrMisses                      1250                       # TLB misses on write requests (Count)
system.cpu.mmu.dtb.walker.power_state.pwrStateResidencyTicks::UNDEFINED 1071829816918                       # Cumulative time (in ticks) in various power states (Tick)
system.cpu.mmu.itb.rdAccesses                       0                       # TLB accesses on read requests (Count)
system.cpu.mmu.itb.wrAccesses                55642391                       # TLB accesses on write requests (Count)
system.cpu.mmu.itb.rdMisses                         0                       # TLB misses on read requests (Count)
system.cpu.mmu.itb.wrMisses                       523                       # TLB misses on write requests (Count)
system.cpu.mmu.itb.walker.power_state.pwrStateResidencyTicks::UNDEFINED 1071829816918                       # Cumulative time (in ticks) in various power states (Tick)
system.cpu.power_state.pwrStateResidencyTicks::ON 1071829816918                       # Cumulative time (in ticks) in various power states (Tick)
system.cpu.thread_0.numInsts                        0                       # Number of Instructions committed (Count)
system.cpu.thread_0.numOps                          0                       # Number of Ops committed (Count)
system.cpu.thread_0.numMemRefs                      0                       # Number of Memory References (Count)
system.cpu.workload.numSyscalls                   118                       # Number of system calls (Count)
system.mem_ctrl.avgPriority_writebacks::samples    889060.00                       # Average QoS priority value for accepted requests (Count)
system.mem_ctrl.avgPriority_cpu.inst::samples     60256.00                       # Average QoS priority value for accepted requests (Count)
system.mem_ctrl.avgPriority_cpu.data::samples    822143.00                       # Average QoS priority value for accepted requests (Count)
system.mem_ctrl.avgPriority_cpu.l1d.prefetcher::samples   1121892.00                       # Average QoS priority value for accepted requests (Count)
system.mem_ctrl.priorityMinLatency       0.000000018750                       # per QoS priority minimum request to response latency (Second)
system.mem_ctrl.priorityMaxLatency       0.011493898956                       # per QoS priority maximum request to response latency (Second)
system.mem_ctrl.numReadWriteTurnArounds         49174                       # Number of turnarounds from READ to WRITE (Count)
system.mem_ctrl.numWriteReadTurnArounds         49174                       # Number of turnarounds from WRITE to READ (Count)
system.mem_ctrl.numStayReadState              5243977                       # Number of times bus staying in READ state (Count)
system.mem_ctrl.numStayWriteState              841432                       # Number of times bus staying in WRITE state (Count)
system.mem_ctrl.readReqs                      2124969                       # Number of read requests accepted (Count)
system.mem_ctrl.writeReqs                      979904                       # Number of write requests accepted (Count)
system.mem_ctrl.readBursts                    2124969                       # Number of controller read bursts, including those serviced by the write queue (Count)
system.mem_ctrl.writeBursts                    979904                       # Number of controller write bursts, including those merged in the write queue (Count)
system.mem_ctrl.servicedByWrQ                  120678                       # Number of controller read bursts serviced by the write queue (Count)
system.mem_ctrl.mergedWrBursts                  90844                       # Number of controller write bursts merged with an existing one (Count)
system.mem_ctrl.neitherReadNorWriteReqs             0                       # Number of requests that are neither read nor write (Count)
system.mem_ctrl.avgRdQLen                        1.46                       # Average read queue length when enqueuing ((Count/Tick))
system.mem_ctrl.avgWrQLen                       24.93                       # Average write queue length when enqueuing ((Count/Tick))
system.mem_ctrl.numRdRetry                          0                       # Number of times read queue was full causing retry (Count)
system.mem_ctrl.numWrRetry                          0                       # Number of times write queue was full causing retry (Count)
system.mem_ctrl.readPktSize::0                      0                       # Read request sizes (log2) (Count)
system.mem_ctrl.readPktSize::1                      0                       # Read request sizes (log2) (Count)
system.mem_ctrl.readPktSize::2                      0                       # Read request sizes (log2) (Count)
system.mem_ctrl.readPktSize::3                      0                       # Read request sizes (log2) (Count)
system.mem_ctrl.readPktSize::4                      0                       # Read request sizes (log2) (Count)
system.mem_ctrl.readPktSize::5                      0                       # Read request sizes (log2) (Count)
system.mem_ctrl.readPktSize::6                2124969                       # Read request sizes (log2) (Count)
system.mem_ctrl.writePktSize::0                     0                       # Write request sizes (log2) (Count)
system.mem_ctrl.writePktSize::1                     0                       # Write request sizes (log2) (Count)
system.mem_ctrl.writePktSize::2                     0                       # Write request sizes (log2) (Count)
system.mem_ctrl.writePktSize::3                     0                       # Write request sizes (log2) (Count)
system.mem_ctrl.writePktSize::4                     0                       # Write request sizes (log2) (Count)
system.mem_ctrl.writePktSize::5                     0                       # Write request sizes (log2) (Count)
system.mem_ctrl.writePktSize::6                979904                       # Write request sizes (log2) (Count)
system.mem_ctrl.rdQLenPdf::0                  1052085                       # What read queue length does an incoming req see (Count)
system.mem_ctrl.rdQLenPdf::1                   746114                       # What read queue length does an incoming req see (Count)
system.mem_ctrl.rdQLenPdf::2                   181221                       # What read queue length does an incoming req see (Count)
system.mem_ctrl.rdQLenPdf::3                    24538                       # What read queue length does an incoming req see (Count)
system.mem_ctrl.rdQLenPdf::4                      329                       # What read queue length does an incoming req see (Count)
system.mem_ctrl.rdQLenPdf::5                        4                       # What read queue length does an incoming req see (Count)
system.mem_ctrl.rdQLenPdf::6                        0                       # What read queue length does an incoming req see (Count)
system.mem_ctrl.rdQLenPdf::7                        0                       # What read queue length does an incoming req see (Count)
system.mem_ctrl.rdQLenPdf::8                        0                       # What read queue length does an incoming req see (Count)
system.mem_ctrl.rdQLenPdf::9                        0                       # What read queue length does an incoming req see (Count)
system.mem_ctrl.rdQLenPdf::10                       0                       # What read queue length does an incoming req see (Count)
system.mem_ctrl.rdQLenPdf::11                       0                       # What read queue length does an incoming req see (Count)
system.mem_ctrl.rdQLenPdf::12                       0                       # What read queue length does an incoming req see (Count)
system.mem_ctrl.rdQLenPdf::13                       0                       # What read queue length does an incoming req see (Count)
system.mem_ctrl.rdQLenPdf::14                       0                       # What read queue length does an incoming req see (Count)
system.mem_ctrl.rdQLenPdf::15                       0                       # What read queue length does an incoming req see (Count)
system.mem_ctrl.rdQLenPdf::16                       0                       # What read queue length does an incoming req see (Count)
system.mem_ctrl.rdQLenPdf::17                       0                       # What read queue length does an incoming req see (Count)
system.mem_ctrl.rdQLenPdf::18                       0                       # What read queue length does an incoming req see (Count)
system.mem_ctrl.rdQLenPdf::19                       0                       # What read queue length does an incoming req see (Count)
system.mem_ctrl.rdQLenPdf::20                       0                       # What read queue length does an incoming req see (Count)
system.mem_ctrl.rdQLenPdf::21                       0                       # What read queue length does an incoming req see (Count)
system.mem_ctrl.rdQLenPdf::22                       0                       # What read queue length does an incoming req see (Count)
system.mem_ctrl.rdQLenPdf::23                       0                       # What read queue length does an incoming req see (Count)
system.mem_ctrl.rdQLenPdf::24                       0                       # What read queue length does an incoming req see (Count)
system.mem_ctrl.rdQLenPdf::25                       0                       # What read queue length does an incoming req see (Count)
system.mem_ctrl.rdQLenPdf::26                       0                       # What read queue length does an incoming req see (Count)
system.mem_ctrl.rdQLenPdf::27                       0                       # What read queue length does an incoming req see (Count)
system.mem_ctrl.rdQLenPdf::28                       0                       # What read queue length does an incoming req see (Count)
system.mem_ctrl.rdQLenPdf::29                       0                       # What read queue length does an incoming req see (Count)
system.mem_ctrl.rdQLenPdf::30                       0                       # What read queue length does an incoming req see (Count)
system.mem_ctrl.rdQLenPdf::31                       0                       # What read queue length does an incoming req see (Count)
system.mem_ctrl.wrQLenPdf::0                        1                       # What write queue length does an incoming req see (Count)
system.mem_ctrl.wrQLenPdf::1                        1                       # What write queue length does an incoming req see (Count)
system.mem_ctrl.wrQLenPdf::2                        1                       # What write queue length does an incoming req see (Count)
system.mem_ctrl.wrQLenPdf::3                        1                       # What write queue length does an incoming req see (Count)
system.mem_ctrl.wrQLenPdf::4                        1                       # What write queue length does an incoming req see (Count)
system.mem_ctrl.wrQLenPdf::5                        1                       # What write queue length does an incoming req see (Count)
system.mem_ctrl.wrQLenPdf::6                        1                       # What write queue length does an incoming req see (Count)
system.mem_ctrl.wrQLenPdf::7                        1                       # What write queue length does an incoming req see (Count)
system.mem_ctrl.wrQLenPdf::8                        1                       # What write queue length does an incoming req see (Count)
system.mem_ctrl.wrQLenPdf::9                        1                       # What write queue length does an incoming req see (Count)
system.mem_ctrl.wrQLenPdf::10                       1                       # What write queue length does an incoming req see (Count)
system.mem_ctrl.wrQLenPdf::11                       1                       # What write queue length does an incoming req see (Count)
system.mem_ctrl.wrQLenPdf::12                       1                       # What write queue length does an incoming req see (Count)
system.mem_ctrl.wrQLenPdf::13                       1                       # What write queue length does an incoming req see (Count)
system.mem_ctrl.wrQLenPdf::14                       1                       # What write queue length does an incoming req see (Count)
system.mem_ctrl.wrQLenPdf::15                   47616                       # What write queue length does an incoming req see (Count)
system.mem_ctrl.wrQLenPdf::16                   50582                       # What write queue length does an incoming req see (Count)
system.mem_ctrl.wrQLenPdf::17                   51244                       # What write queue length does an incoming req see (Count)
system.mem_ctrl.wrQLenPdf::18                   49212                       # What write queue length does an incoming req see (Count)
system.mem_ctrl.wrQLenPdf::19                   49224                       # What write queue length does an incoming req see (Count)
system.mem_ctrl.wrQLenPdf::20                   49212                       # What write queue length does an incoming req see (Count)
system.mem_ctrl.wrQLenPdf::21                   49219                       # What write queue length does an incoming req see (Count)
system.mem_ctrl.wrQLenPdf::22                   49205                       # What write queue length does an incoming req see (Count)
system.mem_ctrl.wrQLenPdf::23                   49202                       # What write queue length does an incoming req see (Count)
system.mem_ctrl.wrQLenPdf::24                   49234                       # What write queue length does an incoming req see (Count)
system.mem_ctrl.wrQLenPdf::25                   49247                       # What write queue length does an incoming req see (Count)
system.mem_ctrl.wrQLenPdf::26                   49229                       # What write queue length does an incoming req see (Count)
system.mem_ctrl.wrQLenPdf::27                   49231                       # What write queue length does an incoming req see (Count)
system.mem_ctrl.wrQLenPdf::28                   49215                       # What write queue length does an incoming req see (Count)
system.mem_ctrl.wrQLenPdf::29                   49195                       # What write queue length does an incoming req see (Count)
system.mem_ctrl.wrQLenPdf::30                   49194                       # What write queue length does an incoming req see (Count)
system.mem_ctrl.wrQLenPdf::31                   49182                       # What write queue length does an incoming req see (Count)
system.mem_ctrl.wrQLenPdf::32                   49176                       # What write queue length does an incoming req see (Count)
system.mem_ctrl.wrQLenPdf::33                     827                       # What write queue length does an incoming req see (Count)
system.mem_ctrl.wrQLenPdf::34                     489                       # What write queue length does an incoming req see (Count)
system.mem_ctrl.wrQLenPdf::35                     110                       # What write queue length does an incoming req see (Count)
system.mem_ctrl.wrQLenPdf::36                       0                       # What write queue length does an incoming req see (Count)
system.mem_ctrl.wrQLenPdf::37                       0                       # What write queue length does an incoming req see (Count)
system.mem_ctrl.wrQLenPdf::38                       0                       # What write queue length does an incoming req see (Count)
system.mem_ctrl.wrQLenPdf::39                       0                       # What write queue length does an incoming req see (Count)
system.mem_ctrl.wrQLenPdf::40                       0                       # What write queue length does an incoming req see (Count)
system.mem_ctrl.wrQLenPdf::41                       0                       # What write queue length does an incoming req see (Count)
system.mem_ctrl.wrQLenPdf::42                       0                       # What write queue length does an incoming req see (Count)
system.mem_ctrl.wrQLenPdf::43                       0                       # What write queue length does an incoming req see (Count)
system.mem_ctrl.wrQLenPdf::44                       0                       # What write queue length does an incoming req see (Count)
system.mem_ctrl.wrQLenPdf::45                       0                       # What write queue length does an incoming req see (Count)
system.mem_ctrl.wrQLenPdf::46                       0                       # What write queue length does an incoming req see (Count)
system.mem_ctrl.wrQLenPdf::47                       0                       # What write queue length does an incoming req see (Count)
system.mem_ctrl.wrQLenPdf::48                       0                       # What write queue length does an incoming req see (Count)
system.mem_ctrl.wrQLenPdf::49                       0                       # What write queue length does an incoming req see (Count)
system.mem_ctrl.wrQLenPdf::50                       0                       # What write queue length does an incoming req see (Count)
system.mem_ctrl.wrQLenPdf::51                       0                       # What write queue length does an incoming req see (Count)
system.mem_ctrl.wrQLenPdf::52                       0                       # What write queue length does an incoming req see (Count)
system.mem_ctrl.wrQLenPdf::53                       0                       # What write queue length does an incoming req see (Count)
system.mem_ctrl.wrQLenPdf::54                       0                       # What write queue length does an incoming req see (Count)
system.mem_ctrl.wrQLenPdf::55                       0                       # What write queue length does an incoming req see (Count)
system.mem_ctrl.wrQLenPdf::56                       0                       # What write queue length does an incoming req see (Count)
system.mem_ctrl.wrQLenPdf::57                       0                       # What write queue length does an incoming req see (Count)
system.mem_ctrl.wrQLenPdf::58                       0                       # What write queue length does an incoming req see (Count)
system.mem_ctrl.wrQLenPdf::59                       0                       # What write queue length does an incoming req see (Count)
system.mem_ctrl.wrQLenPdf::60                       0                       # What write queue length does an incoming req see (Count)
system.mem_ctrl.wrQLenPdf::61                       0                       # What write queue length does an incoming req see (Count)
system.mem_ctrl.wrQLenPdf::62                       0                       # What write queue length does an incoming req see (Count)
system.mem_ctrl.wrQLenPdf::63                       0                       # What write queue length does an incoming req see (Count)
system.mem_ctrl.rdPerTurnAround::samples        49174                       # Reads before turning the bus around for writes (Count)
system.mem_ctrl.rdPerTurnAround::mean       40.758389                       # Reads before turning the bus around for writes (Count)
system.mem_ctrl.rdPerTurnAround::gmean      23.910078                       # Reads before turning the bus around for writes (Count)
system.mem_ctrl.rdPerTurnAround::stdev     102.252067                       # Reads before turning the bus around for writes (Count)
system.mem_ctrl.rdPerTurnAround::0-127          46232     94.02%     94.02% # Reads before turning the bus around for writes (Count)
system.mem_ctrl.rdPerTurnAround::128-255         1010      2.05%     96.07% # Reads before turning the bus around for writes (Count)
system.mem_ctrl.rdPerTurnAround::256-383         1557      3.17%     99.24% # Reads before turning the bus around for writes (Count)
system.mem_ctrl.rdPerTurnAround::384-511          117      0.24%     99.48% # Reads before turning the bus around for writes (Count)
system.mem_ctrl.rdPerTurnAround::512-639           58      0.12%     99.59% # Reads before turning the bus around for writes (Count)
system.mem_ctrl.rdPerTurnAround::640-767           28      0.06%     99.65% # Reads before turning the bus around for writes (Count)
system.mem_ctrl.rdPerTurnAround::768-895           31      0.06%     99.71% # Reads before turning the bus around for writes (Count)
system.mem_ctrl.rdPerTurnAround::896-1023           30      0.06%     99.77% # Reads before turning the bus around for writes (Count)
system.mem_ctrl.rdPerTurnAround::1024-1151           43      0.09%     99.86% # Reads before turning the bus around for writes (Count)
system.mem_ctrl.rdPerTurnAround::1152-1279           25      0.05%     99.91% # Reads before turning the bus around for writes (Count)
system.mem_ctrl.rdPerTurnAround::1280-1407            3      0.01%     99.92% # Reads before turning the bus around for writes (Count)
system.mem_ctrl.rdPerTurnAround::1408-1535            3      0.01%     99.92% # Reads before turning the bus around for writes (Count)
system.mem_ctrl.rdPerTurnAround::1792-1919            3      0.01%     99.93% # Reads before turning the bus around for writes (Count)
system.mem_ctrl.rdPerTurnAround::1920-2047            7      0.01%     99.95% # Reads before turning the bus around for writes (Count)
system.mem_ctrl.rdPerTurnAround::2048-2175           10      0.02%     99.97% # Reads before turning the bus around for writes (Count)
system.mem_ctrl.rdPerTurnAround::2176-2303           16      0.03%    100.00% # Reads before turning the bus around for writes (Count)
system.mem_ctrl.rdPerTurnAround::2816-2943            1      0.00%    100.00% # Reads before turning the bus around for writes (Count)
system.mem_ctrl.rdPerTurnAround::total          49174                       # Reads before turning the bus around for writes (Count)
system.mem_ctrl.wrPerTurnAround::samples        49174                       # Writes before turning the bus around for reads (Count)
system.mem_ctrl.wrPerTurnAround::mean       18.079371                       # Writes before turning the bus around for reads (Count)
system.mem_ctrl.wrPerTurnAround::gmean      18.071516                       # Writes before turning the bus around for reads (Count)
system.mem_ctrl.wrPerTurnAround::stdev       0.531696                       # Writes before turning the bus around for reads (Count)
system.mem_ctrl.wrPerTurnAround::16              1297      2.64%      2.64% # Writes before turning the bus around for reads (Count)
system.mem_ctrl.wrPerTurnAround::17               224      0.46%      3.09% # Writes before turning the bus around for reads (Count)
system.mem_ctrl.wrPerTurnAround::18             41785     84.97%     88.07% # Writes before turning the bus around for reads (Count)
system.mem_ctrl.wrPerTurnAround::19              5197     10.57%     98.64% # Writes before turning the bus around for reads (Count)
system.mem_ctrl.wrPerTurnAround::20               493      1.00%     99.64% # Writes before turning the bus around for reads (Count)
system.mem_ctrl.wrPerTurnAround::21               174      0.35%     99.99% # Writes before turning the bus around for reads (Count)
system.mem_ctrl.wrPerTurnAround::22                 4      0.01%    100.00% # Writes before turning the bus around for reads (Count)
system.mem_ctrl.wrPerTurnAround::total          49174                       # Writes before turning the bus around for reads (Count)
system.mem_ctrl.bytesReadWrQ                  7723392                       # Total number of bytes read from write queue (Byte)
system.mem_ctrl.bytesReadSys                135998016                       # Total read bytes from the system interface side (Byte)
system.mem_ctrl.bytesWrittenSys              62713856                       # Total written bytes from the system interface side (Byte)
system.mem_ctrl.avgRdBWSys               126883964.08961301                       # Average system read bandwidth in Byte/s ((Byte/Second))
system.mem_ctrl.avgWrBWSys               58511020.13594934                       # Average system write bandwidth in Byte/s ((Byte/Second))
system.mem_ctrl.totGap                   1071829616923                       # Total gap between requests (Tick)
system.mem_ctrl.avgGap                      345208.84                       # Average gap between requests ((Tick/Count))
system.mem_ctrl.requestorReadBytes::cpu.inst      3856384                       # Per-requestor bytes read from memory (Byte)
system.mem_ctrl.requestorReadBytes::cpu.data     52617152                       # Per-requestor bytes read from memory (Byte)
system.mem_ctrl.requestorReadBytes::cpu.l1d.prefetcher     71801088                       # Per-requestor bytes read from memory (Byte)
system.mem_ctrl.requestorWriteBytes::writebacks     56898240                       # Per-requestor bytes write to memory (Byte)
system.mem_ctrl.requestorReadRate::cpu.inst 3597944.318332983181                       # Per-requestor bytes read from memory rate ((Byte/Second))
system.mem_ctrl.requestorReadRate::cpu.data 49090957.509745649993                       # Per-requestor bytes read from memory rate ((Byte/Second))
system.mem_ctrl.requestorReadRate::cpu.l1d.prefetcher 66989261.603545330465                       # Per-requestor bytes read from memory rate ((Byte/Second))
[...]
system.mem_ctrl.dram.bwRead::total          110998236                       # Total read bandwidth from this memory ((Byte/Second))
system.mem_ctrl.dram.bwInstRead::cpu.inst     89398738                       # Instruction read bandwidth from this memory ((Byte/Second))
system.mem_ctrl.dram.bwInstRead::total       89398738                       # Instruction read bandwidth from this memory ((Byte/Second))
system.mem_ctrl.dram.bwWrite::writebacks      5417278                       # Write bandwidth from this memory ((Byte/Second))
system.mem_ctrl.dram.bwWrite::total           5417278                       # Write bandwidth from this memory ((Byte/Second))
system.mem_ctrl.dram.bwTotal::writebacks      5417278                       # Total bandwidth to/from this memory ((Byte/Second))
system.mem_ctrl.dram.bwTotal::cpu.inst       89398738                       # Total bandwidth to/from this memory ((Byte/Second))
system.mem_ctrl.dram.bwTotal::cpu.data       14169344                       # Total bandwidth to/from this memory ((Byte/Second))
system.mem_ctrl.dram.bwTotal::cpu.l1d.prefetcher      7430155                       # Total bandwidth to/from this memory ((Byte/Second))
system.mem_ctrl.dram.bwTotal::total         116415514                       # Total bandwidth to/from this memory ((Byte/Second))
system.mem_ctrl.dram.readBursts                441142                       # Number of DRAM read bursts (Count)
system.mem_ctrl.dram.writeBursts                12906                       # Number of DRAM write bursts (Count)
system.mem_ctrl.dram.perBankRdBursts::0         51366                       # Per bank write bursts (Count)
system.mem_ctrl.dram.perBankRdBursts::1         41992                       # Per bank write bursts (Count)
system.mem_ctrl.dram.perBankRdBursts::2         33666                       # Per bank write bursts (Count)
system.mem_ctrl.dram.perBankRdBursts::3          2463                       # Per bank write bursts (Count)
system.mem_ctrl.dram.perBankRdBursts::4         11409                       # Per bank write bursts (Count)
system.mem_ctrl.dram.perBankRdBursts::5          2928                       # Per bank write bursts (Count)
system.mem_ctrl.dram.perBankRdBursts::6          2930                       # Per bank write bursts (Count)
system.mem_ctrl.dram.perBankRdBursts::7         35551                       # Per bank write bursts (Count)
system.mem_ctrl.dram.perBankRdBursts::8        118020                       # Per bank write bursts (Count)
system.mem_ctrl.dram.perBankRdBursts::9         29335                       # Per bank write bursts (Count)
system.mem_ctrl.dram.perBankRdBursts::10        60952                       # Per bank write bursts (Count)
system.mem_ctrl.dram.perBankRdBursts::11        35502                       # Per bank write bursts (Count)
system.mem_ctrl.dram.perBankRdBursts::12         2380                       # Per bank write bursts (Count)
system.mem_ctrl.dram.perBankRdBursts::13         4371                       # Per bank write bursts (Count)
system.mem_ctrl.dram.perBankRdBursts::14         5103                       # Per bank write bursts (Count)
system.mem_ctrl.dram.perBankRdBursts::15         3174                       # Per bank write bursts (Count)
system.mem_ctrl.dram.perBankWrBursts::0          1147                       # Per bank write bursts (Count)
system.mem_ctrl.dram.perBankWrBursts::1           508                       # Per bank write bursts (Count)
system.mem_ctrl.dram.perBankWrBursts::2           317                       # Per bank write bursts (Count)
system.mem_ctrl.dram.perBankWrBursts::3           662                       # Per bank write bursts (Count)
system.mem_ctrl.dram.perBankWrBursts::4           969                       # Per bank write bursts (Count)
system.mem_ctrl.dram.perBankWrBursts::5           913                       # Per bank write bursts (Count)
system.mem_ctrl.dram.perBankWrBursts::6           936                       # Per bank write bursts (Count)
system.mem_ctrl.dram.perBankWrBursts::7           912                       # Per bank write bursts (Count)
system.mem_ctrl.dram.perBankWrBursts::8           929                       # Per bank write bursts (Count)
system.mem_ctrl.dram.perBankWrBursts::9           915                       # Per bank write bursts (Count)
system.mem_ctrl.dram.perBankWrBursts::10          941                       # Per bank write bursts (Count)
system.mem_ctrl.dram.perBankWrBursts::11          976                       # Per bank write bursts (Count)
system.mem_ctrl.dram.perBankWrBursts::12          702                       # Per bank write bursts (Count)
system.mem_ctrl.dram.perBankWrBursts::13          723                       # Per bank write bursts (Count)
system.mem_ctrl.dram.perBankWrBursts::14          658                       # Per bank write bursts (Count)
system.mem_ctrl.dram.perBankWrBursts::15          698                       # Per bank write bursts (Count)
system.mem_ctrl.dram.totQLat               5451434696                       # Total ticks spent queuing (Tick)
system.mem_ctrl.dram.totBusLat             2205710000                       # Total ticks spent in databus transfers (Tick)
system.mem_ctrl.dram.totMemAccLat         13722847196                       # Total ticks spent from burst creation until serviced by the DRAM (Tick)
system.mem_ctrl.dram.avgQLat                 12357.55                       # Average queueing delay per DRAM burst ((Tick/Count))
system.mem_ctrl.dram.avgBusLat                5000.00                       # Average bus latency per DRAM burst ((Tick/Count))
system.mem_ctrl.dram.avgMemAccLat            31107.55                       # Average memory access latency per DRAM burst ((Tick/Count))
system.mem_ctrl.dram.readRowHits               254965                       # Number of row buffer hits during reads (Count)
system.mem_ctrl.dram.writeRowHits               11738                       # Number of row buffer hits during writes (Count)
system.mem_ctrl.dram.readRowHitRate             57.80                       # Row buffer hit rate for reads (Ratio)
system.mem_ctrl.dram.writeRowHitRate            90.95                       # Row buffer hit rate for writes (Ratio)
system.mem_ctrl.dram.bytesPerActivate::samples       187345                       # Bytes accessed per row activation (Byte)
system.mem_ctrl.dram.bytesPerActivate::mean   155.108917                       # Bytes accessed per row activation (Byte)
system.mem_ctrl.dram.bytesPerActivate::gmean   124.839079                       # Bytes accessed per row activation (Byte)
system.mem_ctrl.dram.bytesPerActivate::stdev   120.432012                       # Bytes accessed per row activation (Byte)
system.mem_ctrl.dram.bytesPerActivate::0-127        73274     39.11%     39.11% # Bytes accessed per row activation (Byte)
system.mem_ctrl.dram.bytesPerActivate::128-255        76682     40.93%     80.04% # Bytes accessed per row activation (Byte)
system.mem_ctrl.dram.bytesPerActivate::256-383        24996     13.34%     93.38% # Bytes accessed per row activation (Byte)
system.mem_ctrl.dram.bytesPerActivate::384-511         8879      4.74%     98.12% # Bytes accessed per row activation (Byte)
system.mem_ctrl.dram.bytesPerActivate::512-639         2351      1.25%     99.38% # Bytes accessed per row activation (Byte)
system.mem_ctrl.dram.bytesPerActivate::640-767           74      0.04%     99.42% # Bytes accessed per row activation (Byte)
system.mem_ctrl.dram.bytesPerActivate::768-895           74      0.04%     99.46% # Bytes accessed per row activation (Byte)
system.mem_ctrl.dram.bytesPerActivate::896-1023           70      0.04%     99.50% # Bytes accessed per row activation (Byte)
system.mem_ctrl.dram.bytesPerActivate::1024-1151          945      0.50%    100.00% # Bytes accessed per row activation (Byte)
system.mem_ctrl.dram.bytesPerActivate::total       187345                       # Bytes accessed per row activation (Byte)
system.mem_ctrl.dram.dramBytesRead           28233088                       # Total bytes read (Byte)
system.mem_ctrl.dram.dramBytesWritten          825984                       # Total bytes written (Byte)
system.mem_ctrl.dram.avgRdBW               108.513318                       # Average DRAM read bandwidth in MiBytes/s ((Byte/Second))
system.mem_ctrl.dram.avgWrBW                 3.174653                       # Average DRAM write bandwidth in MiBytes/s ((Byte/Second))
system.mem_ctrl.dram.peakBW                  12800.00                       # Theoretical peak bandwidth in MiByte/s ((Byte/Second))
system.mem_ctrl.dram.busUtil                     0.87                       # Data bus utilization in percentage (Ratio)
system.mem_ctrl.dram.busUtilRead                 0.85                       # Data bus utilization in percentage for reads (Ratio)
system.mem_ctrl.dram.busUtilWrite                0.02                       # Data bus utilization in percentage for writes (Ratio)
system.mem_ctrl.dram.pageHitRate                58.74                       # Row buffer hit rate, read and write combined (Ratio)
system.mem_ctrl.dram.power_state.pwrStateResidencyTicks::UNDEFINED 260180855316                       # Cumulative time (in ticks) in various power states (Tick)
system.mem_ctrl.dram.rank0.actEnergy        704710860                       # Energy for activate commands per rank (pJ) (Joule)
system.mem_ctrl.dram.rank0.preEnergy        374558910                       # Energy for precharge commands per rank (pJ) (Joule)
system.mem_ctrl.dram.rank0.readEnergy      1301657700                       # Energy for read commands per rank (pJ) (Joule)
system.mem_ctrl.dram.rank0.writeEnergy       33220080                       # Energy for write commands per rank (pJ) (Joule)
system.mem_ctrl.dram.rank0.refreshEnergy 20538195600.000004                       # Energy for refresh commands per rank (pJ) (Joule)
system.mem_ctrl.dram.rank0.actBackEnergy  87165761730                       # Energy for active background per rank (pJ) (Joule)
system.mem_ctrl.dram.rank0.preBackEnergy  26506702080                       # Energy for precharge background per rank (pJ) (Joule)
system.mem_ctrl.dram.rank0.actPowerDownEnergy            0                       # Energy for active power-down per rank (pJ) (Joule)
system.mem_ctrl.dram.rank0.prePowerDownEnergy            0                       # Energy for precharge power-down per rank (pJ) (Joule)
system.mem_ctrl.dram.rank0.selfRefreshEnergy            0                       # Energy for self refresh per rank (pJ) (Joule)
system.mem_ctrl.dram.rank0.totalEnergy   136624806960                       # Total energy per rank (pJ) (Joule)
system.mem_ctrl.dram.rank0.averagePower    525.114758                       # Core power per rank (mW) (Watt)
system.mem_ctrl.dram.rank0.totalIdleTime            0                       # Total Idle time Per DRAM Rank (Tick)
system.mem_ctrl.dram.rank0.pwrStateTime::IDLE  68051604047                       # Time in different power states (Tick)
system.mem_ctrl.dram.rank0.pwrStateTime::REF   8687900000                       # Time in different power states (Tick)
system.mem_ctrl.dram.rank0.pwrStateTime::SREF            0                       # Time in different power states (Tick)
system.mem_ctrl.dram.rank0.pwrStateTime::PRE_PDN            0                       # Time in different power states (Tick)
system.mem_ctrl.dram.rank0.pwrStateTime::ACT 183441351269                       # Time in different power states (Tick)
system.mem_ctrl.dram.rank0.pwrStateTime::ACT_PDN            0                       # Time in different power states (Tick)
system.mem_ctrl.dram.rank1.actEnergy        632932440                       # Energy for activate commands per rank (pJ) (Joule)
system.mem_ctrl.dram.rank1.preEnergy        336415365                       # Energy for precharge commands per rank (pJ) (Joule)
system.mem_ctrl.dram.rank1.readEnergy      1848096180                       # Energy for read commands per rank (pJ) (Joule)
system.mem_ctrl.dram.rank1.writeEnergy       34149240                       # Energy for write commands per rank (pJ) (Joule)
system.mem_ctrl.dram.rank1.refreshEnergy 20538195600.000004                       # Energy for refresh commands per rank (pJ) (Joule)
system.mem_ctrl.dram.rank1.actBackEnergy  92550653760                       # Energy for active background per rank (pJ) (Joule)
system.mem_ctrl.dram.rank1.preBackEnergy  21972056160                       # Energy for precharge background per rank (pJ) (Joule)
system.mem_ctrl.dram.rank1.actPowerDownEnergy            0                       # Energy for active power-down per rank (pJ) (Joule)
system.mem_ctrl.dram.rank1.prePowerDownEnergy            0                       # Energy for precharge power-down per rank (pJ) (Joule)
system.mem_ctrl.dram.rank1.selfRefreshEnergy            0                       # Energy for self refresh per rank (pJ) (Joule)
system.mem_ctrl.dram.rank1.totalEnergy   137912498745                       # Total energy per rank (pJ) (Joule)
system.mem_ctrl.dram.rank1.averagePower    530.063976                       # Core power per rank (mW) (Watt)
system.mem_ctrl.dram.rank1.totalIdleTime            0                       # Total Idle time Per DRAM Rank (Tick)
system.mem_ctrl.dram.rank1.pwrStateTime::IDLE  56289492808                       # Time in different power states (Tick)
system.mem_ctrl.dram.rank1.pwrStateTime::REF   8687900000                       # Time in different power states (Tick)
system.mem_ctrl.dram.rank1.pwrStateTime::SREF            0                       # Time in different power states (Tick)
system.mem_ctrl.dram.rank1.pwrStateTime::PRE_PDN            0                       # Time in different power states (Tick)
system.mem_ctrl.dram.rank1.pwrStateTime::ACT 195203462508                       # Time in different power states (Tick)
system.mem_ctrl.dram.rank1.pwrStateTime::ACT_PDN            0                       # Time in different power states (Tick)
system.mem_ctrl.power_state.pwrStateResidencyTicks::UNDEFINED 260180855316                       # Cumulative time (in ticks) in various power states (Tick)
system.membus.transDist::ReadResp              441005                       # Transaction distribution (Count)
system.membus.transDist::WritebackDirty         22023                       # Transaction distribution (Count)
system.membus.transDist::CleanEvict            429221                       # Transaction distribution (Count)
system.membus.transDist::ReadExReq              10239                       # Transaction distribution (Count)
system.membus.transDist::ReadExResp             10239                       # Transaction distribution (Count)
system.membus.transDist::ReadSharedReq         441005                       # Transaction distribution (Count)
system.membus.pktCount_system.cpu.l1d.mem_side_port::system.mem_ctrl.port       263427                       # Packet count per connected requestor and responder (Count)
system.membus.pktCount_system.cpu.l1d.mem_side_port::total       263427                       # Packet count per connected requestor and responder (Count)
system.membus.pktCount_system.cpu.l1i.mem_side_port::system.mem_ctrl.port      1090305                       # Packet count per connected requestor and responder (Count)
system.membus.pktCount_system.cpu.l1i.mem_side_port::total      1090305                       # Packet count per connected requestor and responder (Count)
system.membus.pktCount::total                 1353732                       # Packet count per connected requestor and responder (Count)
system.membus.pktSize_system.cpu.l1d.mem_side_port::system.mem_ctrl.port      7029248                       # Cumulative packet size per connected requestor and responder (Byte)
system.membus.pktSize_system.cpu.l1d.mem_side_port::total      7029248                       # Cumulative packet size per connected requestor and responder (Byte)
system.membus.pktSize_system.cpu.l1i.mem_side_port::system.mem_ctrl.port     23259840                       # Cumulative packet size per connected requestor and responder (Byte)
system.membus.pktSize_system.cpu.l1i.mem_side_port::total     23259840                       # Cumulative packet size per connected requestor and responder (Byte)
system.membus.pktSize::total                 30289088                       # Cumulative packet size per connected requestor and responder (Byte)
system.membus.snoops                                0                       # Total snoops (Count)
system.membus.snoopTraffic                          0                       # Total snoop traffic (Byte)
system.membus.snoopFanout::samples             451244                       # Request fanout histogram (Count)
system.membus.snoopFanout::mean                     0                       # Request fanout histogram (Count)
system.membus.snoopFanout::stdev                    0                       # Request fanout histogram (Count)
system.membus.snoopFanout::underflows               0      0.00%      0.00% # Request fanout histogram (Count)
system.membus.snoopFanout::0                   451244    100.00%    100.00% # Request fanout histogram (Count)
system.membus.snoopFanout::1                        0      0.00%    100.00% # Request fanout histogram (Count)
system.membus.snoopFanout::2                        0      0.00%    100.00% # Request fanout histogram (Count)
system.membus.snoopFanout::overflows                0      0.00%    100.00% # Request fanout histogram (Count)
system.membus.snoopFanout::min_value                0                       # Request fanout histogram (Count)
system.membus.snoopFanout::max_value                0                       # Request fanout histogram (Count)
system.membus.snoopFanout::total               451244                       # Request fanout histogram (Count)
system.membus.power_state.pwrStateResidencyTicks::UNDEFINED 260180855316                       # Cumulative time (in ticks) in various power states (Tick)
system.membus.reqLayer2.occupancy         13380521103                       # Layer occupancy (ticks) (Tick)
system.membus.reqLayer2.utilization               0.1                       # Layer utilization (Ratio)
system.membus.respLayer2.occupancy         5959799859                       # Layer occupancy (ticks) (Tick)
system.membus.respLayer2.utilization              0.0                       # Layer utilization (Ratio)
system.membus.respLayer3.occupancy        24708325227                       # Layer occupancy (ticks) (Tick)
system.membus.respLayer3.utilization              0.1                       # Layer utilization (Ratio)
system.membus.snoop_filter.totRequests         902488                       # Total number of requests made to the snoop filter. (Count)
system.membus.snoop_filter.hitSingleRequests       451244                       # Number of requests hitting in the snoop filter with a single holder of the requested data. (Count)
system.membus.snoop_filter.hitMultiRequests            0                       # Number of requests hitting in the snoop filter with multiple (>1) holders of the requested data. (Count)
system.membus.snoop_filter.totSnoops                0                       # Total number of snoops made to the snoop filter. (Count)
system.membus.snoop_filter.hitSingleSnoops            0                       # Number of snoops hitting in the snoop filter with a single holder of the requested data. (Count)
system.membus.snoop_filter.hitMultiSnoops            0                       # Number of snoops hitting in the snoop filter with multiple (>1) holders of the requested data. (Count)
system.workload.inst.arm                            0                       # number of arm instructions executed (Count)
system.workload.inst.quiesce                        0                       # number of quiesce instructions executed (Count)

---------- End Simulation Statistics   ----------
