
---------- Begin Simulation Statistics ----------
simSeconds                                   1.172306                       # Number of seconds simulated (Second)
simTicks                                 1172305598294                       # Number of ticks simulated (Tick)
finalTick                                1172305598294                       # Number of ticks from beginning of simulation (restored from checkpoints and never reset) (Tick)
simFreq                                  1000000000000                       # The number of ticks per simulated second ((Tick/Second))
hostSeconds                                    577.55                       # Real time elapsed on the host (Second)
hostTickRate                               2029773862                       # The number of ticks simulated per host second (ticks/s) ((Tick/Second))
hostMemory                                    8624408                       # Number of bytes of host memory used (Byte)
simInsts                                     95198446                       # Number of instructions simulated (Count)
simOps                                      168062174                       # Number of ops (including micro ops) simulated (Count)
hostInstRate                                   164830                       # Simulator instruction rate (inst/s) ((Count/Second))
hostOpRate                                     290989                       # Simulator op (including micro ops) rate (op/s) ((Count/Second))
system.clk_domain.clock                         13333                       # Clock period in ticks (Tick)
system.clk_domain.voltage_domain.voltage            1                       # Voltage in Volts (Volt)
system.cpu.numCycles                         87925119                       # Number of cpu cycles simulated (Cycle)
system.cpu.cpi                               0.923598                       # CPI: cycles per instruction (core level) ((Cycle/Count))
system.cpu.ipc                               1.082722                       # IPC: instructions per cycle (core level) ((Count/Cycle))
system.cpu.numWorkItemsStarted                      0                       # Number of work items this cpu started (Count)
system.cpu.numWorkItemsCompleted                    0                       # Number of work items this cpu completed (Count)
system.cpu.instsAdded                       251993370                       # Number of instructions added to the IQ (excludes non-spec) (Count)
system.cpu.nonSpecInstsAdded                     2410                       # Number of non-speculative instructions added to the IQ (Count)
system.cpu.instsIssued                      231725138                       # Number of instructions issued (Count)
system.cpu.squashedInstsIssued                 774440                       # Number of squashed instructions issued (Count)
system.cpu.squashedInstsExamined             83933591                       # Number of squashed instructions iterated over during squash; mainly for profiling (Count)
system.cpu.squashedOperandsExamined         119453447                       # Number of squashed operands that are examined and possibly removed from graph (Count)
system.cpu.squashedNonSpecRemoved                 197                       # Number of squashed non-spec instructions that were removed (Count)
system.cpu.numIssuedDist::samples            87921400                       # Number of insts issued each cycle (Count)
system.cpu.numIssuedDist::mean               2.635594                       # Number of insts issued each cycle (Count)
system.cpu.numIssuedDist::stdev              2.613486                       # Number of insts issued each cycle (Count)
system.cpu.numIssuedDist::underflows                0      0.00%      0.00% # Number of insts issued each cycle (Count)
system.cpu.numIssuedDist::0                  28659404     32.60%     32.60% # Number of insts issued each cycle (Count)
system.cpu.numIssuedDist::1                  11463045     13.04%     45.63% # Number of insts issued each cycle (Count)
system.cpu.numIssuedDist::2                   9122851     10.38%     56.01% # Number of insts issued each cycle (Count)
system.cpu.numIssuedDist::3                   8411104      9.57%     65.58% # Number of insts issued each cycle (Count)
system.cpu.numIssuedDist::4                   6994780      7.96%     73.53% # Number of insts issued each cycle (Count)
system.cpu.numIssuedDist::5                   4798324      5.46%     78.99% # Number of insts issued each cycle (Count)
system.cpu.numIssuedDist::6                   8987847     10.22%     89.21% # Number of insts issued each cycle (Count)
system.cpu.numIssuedDist::7                   4987103      5.67%     94.89% # Number of insts issued each cycle (Count)
system.cpu.numIssuedDist::8                   4496942      5.11%    100.00% # Number of insts issued each cycle (Count)
system.cpu.numIssuedDist::overflows                 0      0.00%    100.00% # Number of insts issued each cycle (Count)
system.cpu.numIssuedDist::min_value                 0                       # Number of insts issued each cycle (Count)
system.cpu.numIssuedDist::max_value                 8                       # Number of insts issued each cycle (Count)
system.cpu.numIssuedDist::total              87921400                       # Number of insts issued each cycle (Count)
system.cpu.statFuBusy::No_OpClass                   0      0.00%      0.00% # attempts to use FU when none available (Count)
system.cpu.statFuBusy::IntAlu                 6073802     89.58%     89.58% # attempts to use FU when none available (Count)
system.cpu.statFuBusy::IntMult                      0      0.00%     89.58% # attempts to use FU when none available (Count)
system.cpu.statFuBusy::IntDiv                       0      0.00%     89.58% # attempts to use FU when none available (Count)
system.cpu.statFuBusy::FloatAdd                     0      0.00%     89.58% # attempts to use FU when none available (Count)
system.cpu.statFuBusy::FloatCmp                     0      0.00%     89.58% # attempts to use FU when none available (Count)
system.cpu.statFuBusy::FloatCvt                     0      0.00%     89.58% # attempts to use FU when none available (Count)
system.cpu.statFuBusy::FloatMult                    0      0.00%     89.58% # attempts to use FU when none available (Count)
system.cpu.statFuBusy::FloatMultAcc                 0      0.00%     89.58% # attempts to use FU when none available (Count)
system.cpu.statFuBusy::FloatDiv                     0      0.00%     89.58% # attempts to use FU when none available (Count)
system.cpu.statFuBusy::FloatMisc                    0      0.00%     89.58% # attempts to use FU when none available (Count)
system.cpu.statFuBusy::FloatSqrt                    0      0.00%     89.58% # attempts to use FU when none available (Count)
system.cpu.statFuBusy::SimdAdd                      0      0.00%     89.58% # attempts to use FU when none available (Count)
system.cpu.statFuBusy::SimdAddAcc                   0      0.00%     89.58% # attempts to use FU when none available (Count)
system.cpu.statFuBusy::SimdAlu                    133      0.00%     89.58% # attempts to use FU when none available (Count)
system.cpu.statFuBusy::SimdCmp                      1      0.00%     89.58% # attempts to use FU when none available (Count)
system.cpu.statFuBusy::SimdCvt                    161      0.00%     89.58% # attempts to use FU when none available (Count)
system.cpu.statFuBusy::SimdMisc                    32      0.00%     89.58% # attempts to use FU when none available (Count)
system.cpu.statFuBusy::SimdMult                     0      0.00%     89.58% # attempts to use FU when none available (Count)
system.cpu.statFuBusy::SimdMultAcc                  0      0.00%     89.58% # attempts to use FU when none available (Count)
system.cpu.statFuBusy::SimdMatMultAcc               0      0.00%     89.58% # attempts to use FU when none available (Count)
system.cpu.statFuBusy::SimdShift                   28      0.00%     89.58% # attempts to use FU when none available (Count)
system.cpu.statFuBusy::SimdShiftAcc                 0      0.00%     89.58% # attempts to use FU when none available (Count)
system.cpu.statFuBusy::SimdDiv                      0      0.00%     89.58% # attempts to use FU when none available (Count)
system.cpu.statFuBusy::SimdSqrt                     0      0.00%     89.58% # attempts to use FU when none available (Count)
system.cpu.statFuBusy::SimdFloatAdd                 0      0.00%     89.58% # attempts to use FU when none available (Count)
system.cpu.statFuBusy::SimdFloatAlu                 0      0.00%     89.58% # attempts to use FU when none available (Count)
system.cpu.statFuBusy::SimdFloatCmp                 0      0.00%     89.58% # attempts to use FU when none available (Count)
system.cpu.statFuBusy::SimdFloatCvt                 0      0.00%     89.58% # attempts to use FU when none available (Count)
system.cpu.statFuBusy::SimdFloatDiv                 0      0.00%     89.58% # attempts to use FU when none available (Count)
system.cpu.statFuBusy::SimdFloatMisc                0      0.00%     89.58% # attempts to use FU when none available (Count)
system.cpu.statFuBusy::SimdFloatMult                0      0.00%     89.58% # attempts to use FU when none available (Count)
system.cpu.statFuBusy::SimdFloatMultAcc             0      0.00%     89.58% # attempts to use FU when none available (Count)
system.cpu.statFuBusy::SimdFloatMatMultAcc            0      0.00%     89.58% # attempts to use FU when none available (Count)
system.cpu.statFuBusy::SimdFloatSqrt                0      0.00%     89.58% # attempts to use FU when none available (Count)
system.cpu.statFuBusy::SimdReduceAdd                0      0.00%     89.58% # attempts to use FU when none available (Count)
system.cpu.statFuBusy::SimdReduceAlu                0      0.00%     89.58% # attempts to use FU when none available (Count)
system.cpu.statFuBusy::SimdReduceCmp                0      0.00%     89.58% # attempts to use FU when none available (Count)
system.cpu.statFuBusy::SimdFloatReduceAdd            0      0.00%     89.58% # attempts to use FU when none available (Count)
system.cpu.statFuBusy::SimdFloatReduceCmp            0      0.00%     89.58% # attempts to use FU when none available (Count)
system.cpu.statFuBusy::SimdAes                      0      0.00%     89.58% # attempts to use FU when none available (Count)
system.cpu.statFuBusy::SimdAesMix                   0      0.00%     89.58% # attempts to use FU when none available (Count)
system.cpu.statFuBusy::SimdSha1Hash                 0      0.00%     89.58% # attempts to use FU when none available (Count)
system.cpu.statFuBusy::SimdSha1Hash2                0      0.00%     89.58% # attempts to use FU when none available (Count)
system.cpu.statFuBusy::SimdSha256Hash               0      0.00%     89.58% # attempts to use FU when none available (Count)
system.cpu.statFuBusy::SimdSha256Hash2              0      0.00%     89.58% # attempts to use FU when none available (Count)
system.cpu.statFuBusy::SimdShaSigma2                0      0.00%     89.58% # attempts to use FU when none available (Count)
system.cpu.statFuBusy::SimdShaSigma3                0      0.00%     89.58% # attempts to use FU when none available (Count)
system.cpu.statFuBusy::SimdPredAlu                  0      0.00%     89.58% # attempts to use FU when none available (Count)
system.cpu.statFuBusy::Matrix                       0      0.00%     89.58% # attempts to use FU when none available (Count)
system.cpu.statFuBusy::MatrixMov                    0      0.00%     89.58% # attempts to use FU when none available (Count)
system.cpu.statFuBusy::MatrixOP                     0      0.00%     89.58% # attempts to use FU when none available (Count)
system.cpu.statFuBusy::MemRead                 598258      8.82%     98.41% # attempts to use FU when none available (Count)
system.cpu.statFuBusy::MemWrite                105787      1.56%     99.97% # attempts to use FU when none available (Count)
system.cpu.statFuBusy::FloatMemRead               944      0.01%     99.98% # attempts to use FU when none available (Count)
system.cpu.statFuBusy::FloatMemWrite             1329      0.02%    100.00% # attempts to use FU when none available (Count)
system.cpu.statFuBusy::IprAccess                    0      0.00%    100.00% # attempts to use FU when none available (Count)
system.cpu.statFuBusy::InstPrefetch                 0      0.00%    100.00% # attempts to use FU when none available (Count)
system.cpu.statFuBusy::SimdUnitStrideLoad            0      0.00%    100.00% # attempts to use FU when none available (Count)
system.cpu.statFuBusy::SimdUnitStrideStore            0      0.00%    100.00% # attempts to use FU when none available (Count)
system.cpu.statFuBusy::SimdUnitStrideMaskLoad            0      0.00%    100.00% # attempts to use FU when none available (Count)
system.cpu.statFuBusy::SimdUnitStrideMaskStore            0      0.00%    100.00% # attempts to use FU when none available (Count)
system.cpu.statFuBusy::SimdStridedLoad              0      0.00%    100.00% # attempts to use FU when none available (Count)
system.cpu.statFuBusy::SimdStridedStore             0      0.00%    100.00% # attempts to use FU when none available (Count)
system.cpu.statFuBusy::SimdIndexedLoad              0      0.00%    100.00% # attempts to use FU when none available (Count)
system.cpu.statFuBusy::SimdIndexedStore             0      0.00%    100.00% # attempts to use FU when none available (Count)
system.cpu.statFuBusy::SimdWholeRegisterLoad            0      0.00%    100.00% # attempts to use FU when none available (Count)
system.cpu.statFuBusy::SimdWholeRegisterStore            0      0.00%    100.00% # attempts to use FU when none available (Count)
system.cpu.statFuBusy::SimdUnitStrideFaultOnlyFirstLoad            0      0.00%    100.00% # attempts to use FU when none available (Count)
system.cpu.statFuBusy::SimdUnitStrideSegmentedLoad            0      0.00%    100.00% # attempts to use FU when none available (Count)
system.cpu.statFuBusy::SimdUnitStrideSegmentedStore            0      0.00%    100.00% # attempts to use FU when none available (Count)
system.cpu.statFuBusy::SimdExt                      0      0.00%    100.00% # attempts to use FU when none available (Count)
system.cpu.statFuBusy::SimdFloatExt                 0      0.00%    100.00% # attempts to use FU when none available (Count)
system.cpu.statFuBusy::SimdConfig                   0      0.00%    100.00% # attempts to use FU when none available (Count)
system.cpu.statIssuedInstType_0::No_OpClass       283373      0.12%      0.12% # Number of instructions issued per FU type, per thread (Count)
system.cpu.statIssuedInstType_0::IntAlu     189737887     81.88%     82.00% # Number of instructions issued per FU type, per thread (Count)
system.cpu.statIssuedInstType_0::IntMult          467      0.00%     82.00% # Number of instructions issued per FU type, per thread (Count)
system.cpu.statIssuedInstType_0::IntDiv         42896      0.02%     82.02% # Number of instructions issued per FU type, per thread (Count)
system.cpu.statIssuedInstType_0::FloatAdd         9847      0.00%     82.03% # Number of instructions issued per FU type, per thread (Count)
system.cpu.statIssuedInstType_0::FloatCmp            0      0.00%     82.03% # Number of instructions issued per FU type, per thread (Count)
system.cpu.statIssuedInstType_0::FloatCvt         1282      0.00%     82.03% # Number of instructions issued per FU type, per thread (Count)
system.cpu.statIssuedInstType_0::FloatMult            0      0.00%     82.03% # Number of instructions issued per FU type, per thread (Count)
system.cpu.statIssuedInstType_0::FloatMultAcc            0      0.00%     82.03% # Number of instructions issued per FU type, per thread (Count)
system.cpu.statIssuedInstType_0::FloatDiv            0      0.00%     82.03% # Number of instructions issued per FU type, per thread (Count)
system.cpu.statIssuedInstType_0::FloatMisc            0      0.00%     82.03% # Number of instructions issued per FU type, per thread (Count)
system.cpu.statIssuedInstType_0::FloatSqrt            0      0.00%     82.03% # Number of instructions issued per FU type, per thread (Count)
system.cpu.statIssuedInstType_0::SimdAdd        11461      0.00%     82.03% # Number of instructions issued per FU type, per thread (Count)
system.cpu.statIssuedInstType_0::SimdAddAcc            0      0.00%     82.03% # Number of instructions issued per FU type, per thread (Count)
system.cpu.statIssuedInstType_0::SimdAlu       163401      0.07%     82.10% # Number of instructions issued per FU type, per thread (Count)
system.cpu.statIssuedInstType_0::SimdCmp           53      0.00%     82.10% # Number of instructions issued per FU type, per thread (Count)
system.cpu.statIssuedInstType_0::SimdCvt        15865      0.01%     82.11% # Number of instructions issued per FU type, per thread (Count)
system.cpu.statIssuedInstType_0::SimdMisc        16357      0.01%     82.12% # Number of instructions issued per FU type, per thread (Count)
system.cpu.statIssuedInstType_0::SimdMult            0      0.00%     82.12% # Number of instructions issued per FU type, per thread (Count)
system.cpu.statIssuedInstType_0::SimdMultAcc            0      0.00%     82.12% # Number of instructions issued per FU type, per thread (Count)
system.cpu.statIssuedInstType_0::SimdMatMultAcc            0      0.00%     82.12% # Number of instructions issued per FU type, per thread (Count)
system.cpu.statIssuedInstType_0::SimdShift         3491      0.00%     82.12% # Number of instructions issued per FU type, per thread (Count)
system.cpu.statIssuedInstType_0::SimdShiftAcc            0      0.00%     82.12% # Number of instructions issued per FU type, per thread (Count)
system.cpu.statIssuedInstType_0::SimdDiv            0      0.00%     82.12% # Number of instructions issued per FU type, per thread (Count)
system.cpu.statIssuedInstType_0::SimdSqrt            0      0.00%     82.12% # Number of instructions issued per FU type, per thread (Count)
system.cpu.statIssuedInstType_0::SimdFloatAdd          140      0.00%     82.12% # Number of instructions issued per FU type, per thread (Count)
system.cpu.statIssuedInstType_0::SimdFloatAlu            0      0.00%     82.12% # Number of instructions issued per FU type, per thread (Count)
system.cpu.statIssuedInstType_0::SimdFloatCmp            0      0.00%     82.12% # Number of instructions issued per FU type, per thread (Count)
system.cpu.statIssuedInstType_0::SimdFloatCvt          218      0.00%     82.12% # Number of instructions issued per FU type, per thread (Count)
system.cpu.statIssuedInstType_0::SimdFloatDiv          142      0.00%     82.12% # Number of instructions issued per FU type, per thread (Count)
system.cpu.statIssuedInstType_0::SimdFloatMisc            0      0.00%     82.12% # Number of instructions issued per FU type, per thread (Count)
system.cpu.statIssuedInstType_0::SimdFloatMult            0      0.00%     82.12% # Number of instructions issued per FU type, per thread (Count)
system.cpu.statIssuedInstType_0::SimdFloatMultAcc            0      0.00%     82.12% # Number of instructions issued per FU type, per thread (Count)
system.cpu.statIssuedInstType_0::SimdFloatMatMultAcc            0      0.00%     82.12% # Number of instructions issued per FU type, per thread (Count)
system.cpu.statIssuedInstType_0::SimdFloatSqrt            0      0.00%     82.12% # Number of instructions issued per FU type, per thread (Count)
system.cpu.statIssuedInstType_0::SimdReduceAdd            0      0.00%     82.12% # Number of instructions issued per FU type, per thread (Count)
system.cpu.statIssuedInstType_0::SimdReduceAlu            0      0.00%     82.12% # Number of instructions issued per FU type, per thread (Count)
system.cpu.statIssuedInstType_0::SimdReduceCmp            0      0.00%     82.12% # Number of instructions issued per FU type, per thread (Count)
system.cpu.statIssuedInstType_0::SimdFloatReduceAdd            0      0.00%     82.12% # Number of instructions issued per FU type, per thread (Count)
system.cpu.statIssuedInstType_0::SimdFloatReduceCmp            0      0.00%     82.12% # Number of instructions issued per FU type, per thread (Count)
system.cpu.statIssuedInstType_0::SimdAes            0      0.00%     82.12% # Number of instructions issued per FU type, per thread (Count)
system.cpu.statIssuedInstType_0::SimdAesMix            0      0.00%     82.12% # Number of instructions issued per FU type, per thread (Count)
system.cpu.statIssuedInstType_0::SimdSha1Hash            0      0.00%     82.12% # Number of instructions issued per FU type, per thread (Count)
system.cpu.statIssuedInstType_0::SimdSha1Hash2            0      0.00%     82.12% # Number of instructions issued per FU type, per thread (Count)
system.cpu.statIssuedInstType_0::SimdSha256Hash            0      0.00%     82.12% # Number of instructions issued per FU type, per thread (Count)
system.cpu.statIssuedInstType_0::SimdSha256Hash2            0      0.00%     82.12% # Number of instructions issued per FU type, per thread (Count)
system.cpu.statIssuedInstType_0::SimdShaSigma2            0      0.00%     82.12% # Number of instructions issued per FU type, per thread (Count)
system.cpu.statIssuedInstType_0::SimdShaSigma3            0      0.00%     82.12% # Number of instructions issued per FU type, per thread (Count)
system.cpu.statIssuedInstType_0::SimdPredAlu            0      0.00%     82.12% # Number of instructions issued per FU type, per thread (Count)
system.cpu.statIssuedInstType_0::Matrix             0      0.00%     82.12% # Number of instructions issued per FU type, per thread (Count)
system.cpu.statIssuedInstType_0::MatrixMov            0      0.00%     82.12% # Number of instructions issued per FU type, per thread (Count)
system.cpu.statIssuedInstType_0::MatrixOP            0      0.00%     82.12% # Number of instructions issued per FU type, per thread (Count)
system.cpu.statIssuedInstType_0::MemRead     36108660     15.58%     97.70% # Number of instructions issued per FU type, per thread (Count)
system.cpu.statIssuedInstType_0::MemWrite      4252826      1.84%     99.54% # Number of instructions issued per FU type, per thread (Count)
system.cpu.statIssuedInstType_0::FloatMemRead       179601      0.08%     99.61% # Number of instructions issued per FU type, per thread (Count)
system.cpu.statIssuedInstType_0::FloatMemWrite       897171      0.39%    100.00% # Number of instructions issued per FU type, per thread (Count)
system.cpu.statIssuedInstType_0::IprAccess            0      0.00%    100.00% # Number of instructions issued per FU type, per thread (Count)
system.cpu.statIssuedInstType_0::InstPrefetch            0      0.00%    100.00% # Number of instructions issued per FU type, per thread (Count)
system.cpu.statIssuedInstType_0::SimdUnitStrideLoad            0      0.00%    100.00% # Number of instructions issued per FU type, per thread (Count)
system.cpu.statIssuedInstType_0::SimdUnitStrideStore            0      0.00%    100.00% # Number of instructions issued per FU type, per thread (Count)
system.cpu.statIssuedInstType_0::SimdUnitStrideMaskLoad            0      0.00%    100.00% # Number of instructions issued per FU type, per thread (Count)
system.cpu.statIssuedInstType_0::SimdUnitStrideMaskStore            0      0.00%    100.00% # Number of instructions issued per FU type, per thread (Count)
system.cpu.statIssuedInstType_0::SimdStridedLoad            0      0.00%    100.00% # Number of instructions issued per FU type, per thread (Count)
system.cpu.statIssuedInstType_0::SimdStridedStore            0      0.00%    100.00% # Number of instructions issued per FU type, per thread (Count)
system.cpu.statIssuedInstType_0::SimdIndexedLoad            0      0.00%    100.00% # Number of instructions issued per FU type, per thread (Count)
system.cpu.statIssuedInstType_0::SimdIndexedStore            0      0.00%    100.00% # Number of instructions issued per FU type, per thread (Count)
system.cpu.statIssuedInstType_0::SimdWholeRegisterLoad            0      0.00%    100.00% # Number of instructions issued per FU type, per thread (Count)
system.cpu.statIssuedInstType_0::SimdWholeRegisterStore            0      0.00%    100.00% # Number of instructions issued per FU type, per thread (Count)
system.cpu.statIssuedInstType_0::SimdUnitStrideFaultOnlyFirstLoad            0      0.00%    100.00% # Number of instructions issued per FU type, per thread (Count)
system.cpu.statIssuedInstType_0::SimdUnitStrideSegmentedLoad            0      0.00%    100.00% # Number of instructions issued per FU type, per thread (Count)
system.cpu.statIssuedInstType_0::SimdUnitStrideSegmentedStore            0      0.00%    100.00% # Number of instructions issued per FU type, per thread (Count)
system.cpu.statIssuedInstType_0::SimdExt            0      0.00%    100.00% # Number of instructions issued per FU type, per thread (Count)
system.cpu.statIssuedInstType_0::SimdFloatExt            0      0.00%    100.00% # Number of instructions issued per FU type, per thread (Count)
system.cpu.statIssuedInstType_0::SimdConfig            0      0.00%    100.00% # Number of instructions issued per FU type, per thread (Count)
system.cpu.statIssuedInstType_0::total      231725138                       # Number of instructions issued per FU type, per thread (Count)
system.cpu.issueRate                         2.635483                       # Inst issue rate ((Count/Cycle))
system.cpu.fuBusy                             6780475                       # FU busy when requested (Count)
system.cpu.fuBusyRate                        0.029261                       # FU busy rate (busy events/executed inst) ((Count/Count))
system.cpu.intInstQueueReads                556316353                       # Number of integer instruction queue reads (Count)
system.cpu.intInstQueueWrites               334574748                       # Number of integer instruction queue writes (Count)
system.cpu.intInstQueueWakeupAccesses       221109122                       # Number of integer instruction queue wakeup accesses (Count)
system.cpu.fpInstQueueReads                   2610238                       # Number of floating instruction queue reads (Count)
system.cpu.fpInstQueueWrites                  1355132                       # Number of floating instruction queue writes (Count)
system.cpu.fpInstQueueWakeupAccesses          1296594                       # Number of floating instruction queue wakeup accesses (Count)
system.cpu.vecInstQueueReads                        0                       # Number of vector instruction queue reads (Count)
system.cpu.vecInstQueueWrites                       0                       # Number of vector instruction queue writes (Count)
system.cpu.vecInstQueueWakeupAccesses               0                       # Number of vector instruction queue wakeup accesses (Count)
system.cpu.intAluAccesses                   236916005                       # Number of integer alu accesses (Count)
system.cpu.fpAluAccesses                      1306235                       # Number of floating point alu accesses (Count)
system.cpu.vecAluAccesses                           0                       # Number of vector alu accesses (Count)
system.cpu.numSquashedInsts                   3300965                       # Number of squashed instructions skipped in execute (Count)
system.cpu.numSwp                                   0                       # Number of swp insts executed (Count)
system.cpu.timesIdled                            1047                       # Number of times that the entire CPU went into an idle state and unscheduled itself (Count)
system.cpu.idleCycles                            3719                       # Total number of cycles that the CPU has spent unscheduled due to idling (Cycle)
system.cpu.MemDepUnit__0.insertedLoads       36585711                       # Number of loads inserted to the mem dependence unit. (Count)
system.cpu.MemDepUnit__0.insertedStores       5861834                       # Number of stores inserted to the mem dependence unit. (Count)
system.cpu.MemDepUnit__0.conflictingLoads       704206                       # Number of conflicting loads. (Count)
system.cpu.MemDepUnit__0.conflictingStores       604767                       # Number of conflicting stores. (Count)
system.cpu.MemDepUnit__1.insertedLoads              0                       # Number of loads inserted to the mem dependence unit. (Count)
system.cpu.MemDepUnit__1.insertedStores             0                       # Number of stores inserted to the mem dependence unit. (Count)
system.cpu.MemDepUnit__1.conflictingLoads            0                       # Number of conflicting loads. (Count)
system.cpu.MemDepUnit__1.conflictingStores            0                       # Number of conflicting stores. (Count)
system.cpu.MemDepUnit__2.insertedLoads              0                       # Number of loads inserted to the mem dependence unit. (Count)
system.cpu.MemDepUnit__2.insertedStores             0                       # Number of stores inserted to the mem dependence unit. (Count)
system.cpu.MemDepUnit__2.conflictingLoads            0                       # Number of conflicting loads. (Count)
system.cpu.MemDepUnit__2.conflictingStores            0                       # Number of conflicting stores. (Count)
system.cpu.MemDepUnit__3.insertedLoads              0                       # Number of loads inserted to the mem dependence unit. (Count)
system.cpu.MemDepUnit__3.insertedStores             0                       # Number of stores inserted to the mem dependence unit. (Count)
system.cpu.MemDepUnit__3.conflictingLoads            0                       # Number of conflicting loads. (Count)
system.cpu.MemDepUnit__3.conflictingStores            0                       # Number of conflicting stores. (Count)
system.cpu.branchPred.lookups_0::NoBranch         2331      0.01%      0.01% # Number of BP lookups (Count)
system.cpu.branchPred.lookups_0::Return        190846      0.59%      0.60% # Number of BP lookups (Count)
system.cpu.branchPred.lookups_0::CallDirect       207329      0.65%      1.25% # Number of BP lookups (Count)
system.cpu.branchPred.lookups_0::CallIndirect         1308      0.00%      1.25% # Number of BP lookups (Count)
system.cpu.branchPred.lookups_0::DirectCond     30134550     93.94%     95.20% # Number of BP lookups (Count)
system.cpu.branchPred.lookups_0::DirectUncond      1528663      4.77%     99.96% # Number of BP lookups (Count)
system.cpu.branchPred.lookups_0::IndirectCond            0      0.00%     99.96% # Number of BP lookups (Count)
system.cpu.branchPred.lookups_0::IndirectUncond        12264      0.04%    100.00% # Number of BP lookups (Count)
system.cpu.branchPred.lookups_0::total       32077291                       # Number of BP lookups (Count)
system.cpu.branchPred.squashes_0::NoBranch         2071      0.01%      0.01% # Number of branches that got squashed (completely removed) as an earlier branch was mispredicted. (Count)
system.cpu.branchPred.squashes_0::Return        22270      0.16%      0.17% # Number of branches that got squashed (completely removed) as an earlier branch was mispredicted. (Count)
system.cpu.branchPred.squashes_0::CallDirect        39352      0.28%      0.46% # Number of branches that got squashed (completely removed) as an earlier branch was mispredicted. (Count)
system.cpu.branchPred.squashes_0::CallIndirect          704      0.01%      0.46% # Number of branches that got squashed (completely removed) as an earlier branch was mispredicted. (Count)
system.cpu.branchPred.squashes_0::DirectCond     13283603     95.30%     95.76% # Number of branches that got squashed (completely removed) as an earlier branch was mispredicted. (Count)
system.cpu.branchPred.squashes_0::DirectUncond       584185      4.19%     99.95% # Number of branches that got squashed (completely removed) as an earlier branch was mispredicted. (Count)
system.cpu.branchPred.squashes_0::IndirectCond            0      0.00%     99.95% # Number of branches that got squashed (completely removed) as an earlier branch was mispredicted. (Count)
system.cpu.branchPred.squashes_0::IndirectUncond         6665      0.05%    100.00% # Number of branches that got squashed (completely removed) as an earlier branch was mispredicted. (Count)
system.cpu.branchPred.squashes_0::total      13938850                       # Number of branches that got squashed (completely removed) as an earlier branch was mispredicted. (Count)
system.cpu.branchPred.corrected_0::NoBranch          432      0.03%      0.03% # Number of branches that got corrected but not yet commited. Branches get corrected by decode or after execute. Also a branch misprediction can be detected out-of-order. Therefore, a corrected branch might not end up beeing committed in case an even earlier branch was mispredicted (Count)
system.cpu.branchPred.corrected_0::Return           11      0.00%      0.03% # Number of branches that got corrected but not yet commited. Branches get corrected by decode or after execute. Also a branch misprediction can be detected out-of-order. Therefore, a corrected branch might not end up beeing committed in case an even earlier branch was mispredicted (Count)
system.cpu.branchPred.corrected_0::CallDirect          898      0.05%      0.08% # Number of branches that got corrected but not yet commited. Branches get corrected by decode or after execute. Also a branch misprediction can be detected out-of-order. Therefore, a corrected branch might not end up beeing committed in case an even earlier branch was mispredicted (Count)
system.cpu.branchPred.corrected_0::CallIndirect          236      0.01%      0.10% # Number of branches that got corrected but not yet commited. Branches get corrected by decode or after execute. Also a branch misprediction can be detected out-of-order. Therefore, a corrected branch might not end up beeing committed in case an even earlier branch was mispredicted (Count)
system.cpu.branchPred.corrected_0::DirectCond      1638607     99.79%     99.89% # Number of branches that got corrected but not yet commited. Branches get corrected by decode or after execute. Also a branch misprediction can be detected out-of-order. Therefore, a corrected branch might not end up beeing committed in case an even earlier branch was mispredicted (Count)
system.cpu.branchPred.corrected_0::DirectUncond          619      0.04%     99.93% # Number of branches that got corrected but not yet commited. Branches get corrected by decode or after execute. Also a branch misprediction can be detected out-of-order. Therefore, a corrected branch might not end up beeing committed in case an even earlier branch was mispredicted (Count)
system.cpu.branchPred.corrected_0::IndirectCond            0      0.00%     99.93% # Number of branches that got corrected but not yet commited. Branches get corrected by decode or after execute. Also a branch misprediction can be detected out-of-order. Therefore, a corrected branch might not end up beeing committed in case an even earlier branch was mispredicted (Count)
system.cpu.branchPred.corrected_0::IndirectUncond         1203      0.07%    100.00% # Number of branches that got corrected but not yet commited. Branches get corrected by decode or after execute. Also a branch misprediction can be detected out-of-order. Therefore, a corrected branch might not end up beeing committed in case an even earlier branch was mispredicted (Count)
system.cpu.branchPred.corrected_0::total      1642006                       # Number of branches that got corrected but not yet commited. Branches get corrected by decode or after execute. Also a branch misprediction can be detected out-of-order. Therefore, a corrected branch might not end up beeing committed in case an even earlier branch was mispredicted (Count)
system.cpu.branchPred.earlyResteers_0::NoBranch            0                       # Number of branches that got redirected after decode. (Count)
system.cpu.branchPred.earlyResteers_0::Return            0                       # Number of branches that got redirected after decode. (Count)
system.cpu.branchPred.earlyResteers_0::CallDirect            0                       # Number of branches that got redirected after decode. (Count)
system.cpu.branchPred.earlyResteers_0::CallIndirect            0                       # Number of branches that got redirected after decode. (Count)
system.cpu.branchPred.earlyResteers_0::DirectCond            0                       # Number of branches that got redirected after decode. (Count)
system.cpu.branchPred.earlyResteers_0::DirectUncond            0                       # Number of branches that got redirected after decode. (Count)
system.cpu.branchPred.earlyResteers_0::IndirectCond            0                       # Number of branches that got redirected after decode. (Count)
system.cpu.branchPred.earlyResteers_0::IndirectUncond            0                       # Number of branches that got redirected after decode. (Count)
system.cpu.branchPred.earlyResteers_0::total            0                       # Number of branches that got redirected after decode. (Count)
system.cpu.branchPred.committed_0::NoBranch          260      0.00%      0.00% # Number of branches finally committed  (Count)
system.cpu.branchPred.committed_0::Return       168575      0.93%      0.93% # Number of branches finally committed  (Count)
system.cpu.branchPred.committed_0::CallDirect       167976      0.93%      1.86% # Number of branches finally committed  (Count)
system.cpu.branchPred.committed_0::CallIndirect          604      0.00%      1.86% # Number of branches finally committed  (Count)
system.cpu.branchPred.committed_0::DirectCond     16850947     92.90%     94.76% # Number of branches finally committed  (Count)
system.cpu.branchPred.committed_0::DirectUncond       944478      5.21%     99.97% # Number of branches finally committed  (Count)
system.cpu.branchPred.committed_0::IndirectCond            0      0.00%     99.97% # Number of branches finally committed  (Count)
system.cpu.branchPred.committed_0::IndirectUncond         5599      0.03%    100.00% # Number of branches finally committed  (Count)
system.cpu.branchPred.committed_0::total     18138439                       # Number of branches finally committed  (Count)
system.cpu.branchPred.mispredicted_0::NoBranch          260      0.02%      0.02% # Number of committed branches that were mispredicted. (Count)
system.cpu.branchPred.mispredicted_0::Return            0      0.00%      0.02% # Number of committed branches that were mispredicted. (Count)
system.cpu.branchPred.mispredicted_0::CallDirect          498      0.04%      0.06% # Number of committed branches that were mispredicted. (Count)
system.cpu.branchPred.mispredicted_0::CallIndirect          207      0.02%      0.08% # Number of committed branches that were mispredicted. (Count)
system.cpu.branchPred.mispredicted_0::DirectCond      1256699     99.81%     99.88% # Number of committed branches that were mispredicted. (Count)
system.cpu.branchPred.mispredicted_0::DirectUncond          347      0.03%     99.91% # Number of committed branches that were mispredicted. (Count)
system.cpu.branchPred.mispredicted_0::IndirectCond            0      0.00%     99.91% # Number of committed branches that were mispredicted. (Count)
system.cpu.branchPred.mispredicted_0::IndirectUncond         1136      0.09%    100.00% # Number of committed branches that were mispredicted. (Count)
system.cpu.branchPred.mispredicted_0::total      1259147                       # Number of committed branches that were mispredicted. (Count)
system.cpu.branchPred.targetProvider_0::NoTarget      4965731     15.48%     15.48% # The component providing the target for taken branches (Count)
system.cpu.branchPred.targetProvider_0::BTB     26914114     83.90%     99.38% # The component providing the target for taken branches (Count)
system.cpu.branchPred.targetProvider_0::RAS       190845      0.59%     99.98% # The component providing the target for taken branches (Count)
system.cpu.branchPred.targetProvider_0::Indirect         6601      0.02%    100.00% # The component providing the target for taken branches (Count)
system.cpu.branchPred.targetProvider_0::total     32077291                       # The component providing the target for taken branches (Count)
system.cpu.branchPred.targetWrong_0::NoBranch       446555     27.23%     27.23% # Number of branches where the target was incorrect or not available at prediction time. (Count)
system.cpu.branchPred.targetWrong_0::Return      1193070     72.76%     99.99% # Number of branches where the target was incorrect or not available at prediction time. (Count)
system.cpu.branchPred.targetWrong_0::CallDirect           11      0.00%     99.99% # Number of branches where the target was incorrect or not available at prediction time. (Count)
system.cpu.branchPred.targetWrong_0::CallIndirect          158      0.01%    100.00% # Number of branches where the target was incorrect or not available at prediction time. (Count)
system.cpu.branchPred.targetWrong_0::DirectCond            0      0.00%    100.00% # Number of branches where the target was incorrect or not available at prediction time. (Count)
system.cpu.branchPred.targetWrong_0::DirectUncond            0      0.00%    100.00% # Number of branches where the target was incorrect or not available at prediction time. (Count)
system.cpu.branchPred.targetWrong_0::IndirectCond            0      0.00%    100.00% # Number of branches where the target was incorrect or not available at prediction time. (Count)
system.cpu.branchPred.targetWrong_0::IndirectUncond            0      0.00%    100.00% # Number of branches where the target was incorrect or not available at prediction time. (Count)
system.cpu.branchPred.targetWrong_0::total      1639794                       # Number of branches where the target was incorrect or not available at prediction time. (Count)
system.cpu.branchPred.condPredicted          30136881                       # Number of conditional branches predicted (Count)
system.cpu.branchPred.condPredictedTaken     25198472                       # Number of conditional branches predicted as taken (Count)
system.cpu.branchPred.condIncorrect           1642006                       # Number of conditional branches incorrect (Count)
system.cpu.branchPred.predTakenBTBMiss           1784                       # Number of branches predicted taken but missed in BTB (Count)
system.cpu.branchPred.NotTakenMispredicted       448356                       # Number branches predicted 'not taken' but turned out to be taken (Count)
system.cpu.branchPred.TakenMispredicted       1193650                       # Number branches predicted taken but are actually not taken (Count)
system.cpu.branchPred.BTBLookups             32077291                       # Number of BTB lookups (Count)
system.cpu.branchPred.BTBUpdates               446474                       # Number of BTB updates (Count)
system.cpu.branchPred.BTBHits                30292874                       # Number of BTB hits (Count)
system.cpu.branchPred.BTBHitRatio            0.944371                       # BTB Hit Ratio (Ratio)
system.cpu.branchPred.BTBMispredicted            2671                       # Number BTB mispredictions. No target found or target wrong (Count)
system.cpu.branchPred.indirectLookups           13572                       # Number of indirect predictor lookups. (Count)
system.cpu.branchPred.indirectHits               6601                       # Number of indirect target hits. (Count)
system.cpu.branchPred.indirectMisses             6971                       # Number of indirect misses. (Count)
system.cpu.branchPred.indirectMispredicted            0                       # Number of mispredicted indirect branches. (Count)
system.cpu.branchPred.btb.lookups::NoBranch         2331      0.01%      0.01% # Number of BTB lookups (Count)
system.cpu.branchPred.btb.lookups::Return       190846      0.59%      0.60% # Number of BTB lookups (Count)
system.cpu.branchPred.btb.lookups::CallDirect       207329      0.65%      1.25% # Number of BTB lookups (Count)
system.cpu.branchPred.btb.lookups::CallIndirect         1308      0.00%      1.25% # Number of BTB lookups (Count)
system.cpu.branchPred.btb.lookups::DirectCond     30134550     93.94%     95.20% # Number of BTB lookups (Count)
system.cpu.branchPred.btb.lookups::DirectUncond      1528663      4.77%     99.96% # Number of BTB lookups (Count)
system.cpu.branchPred.btb.lookups::IndirectCond            0      0.00%     99.96% # Number of BTB lookups (Count)
system.cpu.branchPred.btb.lookups::IndirectUncond        12264      0.04%    100.00% # Number of BTB lookups (Count)
system.cpu.branchPred.btb.lookups::total     32077291                       # Number of BTB lookups (Count)
system.cpu.branchPred.btb.misses::NoBranch          393      0.02%      0.02% # Number of BTB misses (Count)
system.cpu.branchPred.btb.misses::Return       190829     10.69%     10.72% # Number of BTB misses (Count)
system.cpu.branchPred.btb.misses::CallDirect         1276      0.07%     10.79% # Number of BTB misses (Count)
system.cpu.branchPred.btb.misses::CallIndirect         1307      0.07%     10.86% # Number of BTB misses (Count)
system.cpu.branchPred.btb.misses::DirectCond      1577434     88.40%     99.26% # Number of BTB misses (Count)
system.cpu.branchPred.btb.misses::DirectUncond          914      0.05%     99.31% # Number of BTB misses (Count)
system.cpu.branchPred.btb.misses::IndirectCond            0      0.00%     99.31% # Number of BTB misses (Count)
system.cpu.branchPred.btb.misses::IndirectUncond        12264      0.69%    100.00% # Number of BTB misses (Count)
system.cpu.branchPred.btb.misses::total       1784417                       # Number of BTB misses (Count)
system.cpu.branchPred.btb.updates::NoBranch            0      0.00%      0.00% # Number of BTB updates (Count)
system.cpu.branchPred.btb.updates::Return            0      0.00%      0.00% # Number of BTB updates (Count)
system.cpu.branchPred.btb.updates::CallDirect          898      0.20%      0.20% # Number of BTB updates (Count)
system.cpu.branchPred.btb.updates::CallIndirect            0      0.00%      0.20% # Number of BTB updates (Count)
system.cpu.branchPred.btb.updates::DirectCond       444957     99.66%     99.86% # Number of BTB updates (Count)
system.cpu.branchPred.btb.updates::DirectUncond          619      0.14%    100.00% # Number of BTB updates (Count)
system.cpu.branchPred.btb.updates::IndirectCond            0      0.00%    100.00% # Number of BTB updates (Count)
system.cpu.branchPred.btb.updates::IndirectUncond            0      0.00%    100.00% # Number of BTB updates (Count)
system.cpu.branchPred.btb.updates::total       446474                       # Number of BTB updates (Count)
system.cpu.branchPred.btb.mispredict::NoBranch            0      0.00%      0.00% # Number of BTB mispredictions. No target found or target wrong. (Count)
system.cpu.branchPred.btb.mispredict::Return            0      0.00%      0.00% # Number of BTB mispredictions. No target found or target wrong. (Count)
system.cpu.branchPred.btb.mispredict::CallDirect          898      0.20%      0.20% # Number of BTB mispredictions. No target found or target wrong. (Count)
system.cpu.branchPred.btb.mispredict::CallIndirect            0      0.00%      0.20% # Number of BTB mispredictions. No target found or target wrong. (Count)
system.cpu.branchPred.btb.mispredict::DirectCond       444957     99.66%     99.86% # Number of BTB mispredictions. No target found or target wrong. (Count)
system.cpu.branchPred.btb.mispredict::DirectUncond          619      0.14%    100.00% # Number of BTB mispredictions. No target found or target wrong. (Count)
system.cpu.branchPred.btb.mispredict::IndirectCond            0      0.00%    100.00% # Number of BTB mispredictions. No target found or target wrong. (Count)
system.cpu.branchPred.btb.mispredict::IndirectUncond            0      0.00%    100.00% # Number of BTB mispredictions. No target found or target wrong. (Count)
system.cpu.branchPred.btb.mispredict::total       446474                       # Number of BTB mispredictions. No target found or target wrong. (Count)
system.cpu.branchPred.btb.power_state.pwrStateResidencyTicks::UNDEFINED 1172305598294                       # Cumulative time (in ticks) in various power states (Tick)
system.cpu.branchPred.indirectBranchPred.lookups        13572                       # Number of lookups (Count)
system.cpu.branchPred.indirectBranchPred.hits         6601                       # Number of hits of a tag (Count)
system.cpu.branchPred.indirectBranchPred.misses         6971                       # Number of misses (Count)
system.cpu.branchPred.indirectBranchPred.targetRecords         1439                       # Number of targets that where recorded/installed in the cache (Count)
system.cpu.branchPred.indirectBranchPred.indirectRecords        15011                       # Number of indirect branches/calls recorded in the indirect hist (Count)
system.cpu.branchPred.indirectBranchPred.speculativeOverflows            1                       # Number of times more than the allowed capacity for speculative branches/calls where in flight and destroy the path history (Count)
system.cpu.branchPred.ras.pushes               230907                       # Number of times a PC was pushed onto the RAS (Count)
system.cpu.branchPred.ras.pops                 230902                       # Number of times a PC was poped from the RAS (Count)
system.cpu.branchPred.ras.squashes              62326                       # Number of times the stack operation was squashed due to wrong speculation. (Count)
system.cpu.branchPred.ras.used                 168575                       # Number of times the RAS is the provider (Count)
system.cpu.branchPred.ras.correct              168575                       # Number of times the RAS is the provider and the prediction is correct (Count)
system.cpu.branchPred.ras.incorrect                 0                       # Number of times the RAS is the provider and the prediction is wrong (Count)
system.cpu.commit.commitSquashedInsts        83910314                       # The number of squashed insts skipped by commit (Count)
system.cpu.commit.commitNonSpecStalls            2213                       # The number of times commit has been forced to stall to communicate backwards (Count)
system.cpu.commit.branchMispredicts           1640481                       # The number of times a branch was mispredicted (Count)
system.cpu.commit.numCommittedDist::samples     75513552                       # Number of insts commited each cycle (Count)
system.cpu.commit.numCommittedDist::mean     2.225590                       # Number of insts commited each cycle (Count)
system.cpu.commit.numCommittedDist::stdev     3.022672                       # Number of insts commited each cycle (Count)
system.cpu.commit.numCommittedDist::underflows            0      0.00%      0.00% # Number of insts commited each cycle (Count)
system.cpu.commit.numCommittedDist::0        38179737     50.56%     50.56% # Number of insts commited each cycle (Count)
system.cpu.commit.numCommittedDist::1         8782603     11.63%     62.19% # Number of insts commited each cycle (Count)
system.cpu.commit.numCommittedDist::2         2903016      3.84%     66.03% # Number of insts commited each cycle (Count)
system.cpu.commit.numCommittedDist::3         7229735      9.57%     75.61% # Number of insts commited each cycle (Count)
system.cpu.commit.numCommittedDist::4         2026340      2.68%     78.29% # Number of insts commited each cycle (Count)
system.cpu.commit.numCommittedDist::5          608536      0.81%     79.10% # Number of insts commited each cycle (Count)
system.cpu.commit.numCommittedDist::6         2604817      3.45%     82.55% # Number of insts commited each cycle (Count)
system.cpu.commit.numCommittedDist::7          422752      0.56%     83.11% # Number of insts commited each cycle (Count)
system.cpu.commit.numCommittedDist::8        12756016     16.89%    100.00% # Number of insts commited each cycle (Count)
system.cpu.commit.numCommittedDist::overflows            0      0.00%    100.00% # Number of insts commited each cycle (Count)
system.cpu.commit.numCommittedDist::min_value            0                       # Number of insts commited each cycle (Count)
system.cpu.commit.numCommittedDist::max_value            8                       # Number of insts commited each cycle (Count)
system.cpu.commit.numCommittedDist::total     75513552                       # Number of insts commited each cycle (Count)
system.cpu.commit.amos                              0                       # Number of atomic instructions committed (Count)
system.cpu.commit.membars                        1008                       # Number of memory barriers committed (Count)
system.cpu.commit.functionCalls                168580                       # Number of function calls committed. (Count)
system.cpu.commit.committedInstType_0::No_OpClass       245216      0.15%      0.15% # Class of committed instruction (Count)
system.cpu.commit.committedInstType_0::IntAlu    139232013     82.85%     82.99% # Class of committed instruction (Count)
system.cpu.commit.committedInstType_0::IntMult          239      0.00%     82.99% # Class of committed instruction (Count)
system.cpu.commit.committedInstType_0::IntDiv        38917      0.02%     83.01% # Class of committed instruction (Count)
system.cpu.commit.committedInstType_0::FloatAdd         7812      0.00%     83.02% # Class of committed instruction (Count)
system.cpu.commit.committedInstType_0::FloatCmp            0      0.00%     83.02% # Class of committed instruction (Count)
system.cpu.commit.committedInstType_0::FloatCvt         1232      0.00%     83.02% # Class of committed instruction (Count)
system.cpu.commit.committedInstType_0::FloatMult            0      0.00%     83.02% # Class of committed instruction (Count)
system.cpu.commit.committedInstType_0::FloatMultAcc            0      0.00%     83.02% # Class of committed instruction (Count)
system.cpu.commit.committedInstType_0::FloatDiv            0      0.00%     83.02% # Class of committed instruction (Count)
system.cpu.commit.committedInstType_0::FloatMisc            0      0.00%     83.02% # Class of committed instruction (Count)
system.cpu.commit.committedInstType_0::FloatSqrt            0      0.00%     83.02% # Class of committed instruction (Count)
system.cpu.commit.committedInstType_0::SimdAdd        10652      0.01%     83.03% # Class of committed instruction (Count)
system.cpu.commit.committedInstType_0::SimdAddAcc            0      0.00%     83.03% # Class of committed instruction (Count)
system.cpu.commit.committedInstType_0::SimdAlu       159106      0.09%     83.12% # Class of committed instruction (Count)
system.cpu.commit.committedInstType_0::SimdCmp           42      0.00%     83.12% # Class of committed instruction (Count)
system.cpu.commit.committedInstType_0::SimdCvt        13750      0.01%     83.13% # Class of committed instruction (Count)
system.cpu.commit.committedInstType_0::SimdMisc        15046      0.01%     83.14% # Class of committed instruction (Count)
system.cpu.commit.committedInstType_0::SimdMult            0      0.00%     83.14% # Class of committed instruction (Count)
system.cpu.commit.committedInstType_0::SimdMultAcc            0      0.00%     83.14% # Class of committed instruction (Count)
system.cpu.commit.committedInstType_0::SimdMatMultAcc            0      0.00%     83.14% # Class of committed instruction (Count)
system.cpu.commit.committedInstType_0::SimdShift         1820      0.00%     83.14% # Class of committed instruction (Count)
system.cpu.commit.committedInstType_0::SimdShiftAcc            0      0.00%     83.14% # Class of committed instruction (Count)
system.cpu.commit.committedInstType_0::SimdDiv            0      0.00%     83.14% # Class of committed instruction (Count)
system.cpu.commit.committedInstType_0::SimdSqrt            0      0.00%     83.14% # Class of committed instruction (Count)
system.cpu.commit.committedInstType_0::SimdFloatAdd           72      0.00%     83.14% # Class of committed instruction (Count)
system.cpu.commit.committedInstType_0::SimdFloatAlu            0      0.00%     83.14% # Class of committed instruction (Count)
system.cpu.commit.committedInstType_0::SimdFloatCmp            0      0.00%     83.14% # Class of committed instruction (Count)
system.cpu.commit.committedInstType_0::SimdFloatCvt          144      0.00%     83.14% # Class of committed instruction (Count)
system.cpu.commit.committedInstType_0::SimdFloatDiv           72      0.00%     83.14% # Class of committed instruction (Count)
system.cpu.commit.committedInstType_0::SimdFloatMisc            0      0.00%     83.14% # Class of committed instruction (Count)
system.cpu.commit.committedInstType_0::SimdFloatMult            0      0.00%     83.14% # Class of committed instruction (Count)
system.cpu.commit.committedInstType_0::SimdFloatMultAcc            0      0.00%     83.14% # Class of committed instruction (Count)
system.cpu.commit.committedInstType_0::SimdFloatMatMultAcc            0      0.00%     83.14% # Class of committed instruction (Count)
system.cpu.commit.committedInstType_0::SimdFloatSqrt            0      0.00%     83.14% # Class of committed instruction (Count)
system.cpu.commit.committedInstType_0::SimdReduceAdd            0      0.00%     83.14% # Class of committed instruction (Count)
system.cpu.commit.committedInstType_0::SimdReduceAlu            0      0.00%     83.14% # Class of committed instruction (Count)
system.cpu.commit.committedInstType_0::SimdReduceCmp            0      0.00%     83.14% # Class of committed instruction (Count)
system.cpu.commit.committedInstType_0::SimdFloatReduceAdd            0      0.00%     83.14% # Class of committed instruction (Count)
system.cpu.commit.committedInstType_0::SimdFloatReduceCmp            0      0.00%     83.14% # Class of committed instruction (Count)
system.cpu.commit.committedInstType_0::SimdAes            0      0.00%     83.14% # Class of committed instruction (Count)
system.cpu.commit.committedInstType_0::SimdAesMix            0      0.00%     83.14% # Class of committed instruction (Count)
system.cpu.commit.committedInstType_0::SimdSha1Hash            0      0.00%     83.14% # Class of committed instruction (Count)
system.cpu.commit.committedInstType_0::SimdSha1Hash2            0      0.00%     83.14% # Class of committed instruction (Count)
system.cpu.commit.committedInstType_0::SimdSha256Hash            0      0.00%     83.14% # Class of committed instruction (Count)
system.cpu.commit.committedInstType_0::SimdSha256Hash2            0      0.00%     83.14% # Class of committed instruction (Count)
system.cpu.commit.committedInstType_0::SimdShaSigma2            0      0.00%     83.14% # Class of committed instruction (Count)
system.cpu.commit.committedInstType_0::SimdShaSigma3            0      0.00%     83.14% # Class of committed instruction (Count)
system.cpu.commit.committedInstType_0::SimdPredAlu            0      0.00%     83.14% # Class of committed instruction (Count)
system.cpu.commit.committedInstType_0::Matrix            0      0.00%     83.14% # Class of committed instruction (Count)
system.cpu.commit.committedInstType_0::MatrixMov            0      0.00%     83.14% # Class of committed instruction (Count)
system.cpu.commit.committedInstType_0::MatrixOP            0      0.00%     83.14% # Class of committed instruction (Count)
system.cpu.commit.committedInstType_0::MemRead     24210174     14.41%     97.55% # Class of committed instruction (Count)
system.cpu.commit.committedInstType_0::MemWrite      3061227      1.82%     99.37% # Class of committed instruction (Count)
system.cpu.commit.committedInstType_0::FloatMemRead       171524      0.10%     99.47% # Class of committed instruction (Count)
system.cpu.commit.committedInstType_0::FloatMemWrite       893116      0.53%    100.00% # Class of committed instruction (Count)
system.cpu.commit.committedInstType_0::IprAccess            0      0.00%    100.00% # Class of committed instruction (Count)
system.cpu.commit.committedInstType_0::InstPrefetch            0      0.00%    100.00% # Class of committed instruction (Count)
system.cpu.commit.committedInstType_0::SimdUnitStrideLoad            0      0.00%    100.00% # Class of committed instruction (Count)
system.cpu.commit.committedInstType_0::SimdUnitStrideStore            0      0.00%    100.00% # Class of committed instruction (Count)
system.cpu.commit.committedInstType_0::SimdUnitStrideMaskLoad            0      0.00%    100.00% # Class of committed instruction (Count)
system.cpu.commit.committedInstType_0::SimdUnitStrideMaskStore            0      0.00%    100.00% # Class of committed instruction (Count)
system.cpu.commit.committedInstType_0::SimdStridedLoad            0      0.00%    100.00% # Class of committed instruction (Count)
system.cpu.commit.committedInstType_0::SimdStridedStore            0      0.00%    100.00% # Class of committed instruction (Count)
system.cpu.commit.committedInstType_0::SimdIndexedLoad            0      0.00%    100.00% # Class of committed instruction (Count)
system.cpu.commit.committedInstType_0::SimdIndexedStore            0      0.00%    100.00% # Class of committed instruction (Count)
system.cpu.commit.committedInstType_0::SimdWholeRegisterLoad            0      0.00%    100.00% # Class of committed instruction (Count)
system.cpu.commit.committedInstType_0::SimdWholeRegisterStore            0      0.00%    100.00% # Class of committed instruction (Count)
system.cpu.commit.committedInstType_0::SimdUnitStrideFaultOnlyFirstLoad            0      0.00%    100.00% # Class of committed instruction (Count)
system.cpu.commit.committedInstType_0::SimdUnitStrideSegmentedLoad            0      0.00%    100.00% # Class of committed instruction (Count)
system.cpu.commit.committedInstType_0::SimdUnitStrideSegmentedStore            0      0.00%    100.00% # Class of committed instruction (Count)
system.cpu.commit.committedInstType_0::SimdExt            0      0.00%    100.00% # Class of committed instruction (Count)
system.cpu.commit.committedInstType_0::SimdFloatExt            0      0.00%    100.00% # Class of committed instruction (Count)
system.cpu.commit.committedInstType_0::SimdConfig            0      0.00%    100.00% # Class of committed instruction (Count)
system.cpu.commit.committedInstType_0::total    168062174                       # Class of committed instruction (Count)
system.cpu.commit.commitEligibleSamples      12756016                       # number cycles where commit BW limit reached (Cycle)
system.cpu.commitStats0.numInsts             95198446                       # Number of instructions committed (thread level) (Count)
system.cpu.commitStats0.numOps              168062174                       # Number of ops (including micro ops) committed (thread level) (Count)
system.cpu.commitStats0.numInstsNotNOP       95198446                       # Number of instructions committed excluding NOPs or prefetches (Count)
system.cpu.commitStats0.numOpsNotNOP        168062174                       # Number of Ops (including micro ops) Simulated (Count)
system.cpu.commitStats0.cpi                  0.923598                       # CPI: cycles per instruction (thread level) ((Cycle/Count))
system.cpu.commitStats0.ipc                  1.082722                       # IPC: instructions per cycle (thread level) ((Count/Cycle))
system.cpu.commitStats0.numMemRefs           28336041                       # Number of memory references committed (Count)
system.cpu.commitStats0.numFpInsts            1278534                       # Number of float instructions (Count)
system.cpu.commitStats0.numIntInsts         167605103                       # Number of integer instructions (Count)
system.cpu.commitStats0.numLoadInsts         24381698                       # Number of load instructions (Count)
system.cpu.commitStats0.numStoreInsts         3954343                       # Number of store instructions (Count)
system.cpu.commitStats0.numVecInsts                 0                       # Number of vector instructions (Count)
system.cpu.commitStats0.committedInstType::No_OpClass       245216      0.15%      0.15% # Class of committed instruction. (Count)
system.cpu.commitStats0.committedInstType::IntAlu    139232013     82.85%     82.99% # Class of committed instruction. (Count)
system.cpu.commitStats0.committedInstType::IntMult          239      0.00%     82.99% # Class of committed instruction. (Count)
system.cpu.commitStats0.committedInstType::IntDiv        38917      0.02%     83.01% # Class of committed instruction. (Count)
system.cpu.commitStats0.committedInstType::FloatAdd         7812      0.00%     83.02% # Class of committed instruction. (Count)
system.cpu.commitStats0.committedInstType::FloatCmp            0      0.00%     83.02% # Class of committed instruction. (Count)
system.cpu.commitStats0.committedInstType::FloatCvt         1232      0.00%     83.02% # Class of committed instruction. (Count)
system.cpu.commitStats0.committedInstType::FloatMult            0      0.00%     83.02% # Class of committed instruction. (Count)
system.cpu.commitStats0.committedInstType::FloatMultAcc            0      0.00%     83.02% # Class of committed instruction. (Count)
system.cpu.commitStats0.committedInstType::FloatDiv            0      0.00%     83.02% # Class of committed instruction. (Count)
system.cpu.commitStats0.committedInstType::FloatMisc            0      0.00%     83.02% # Class of committed instruction. (Count)
system.cpu.commitStats0.committedInstType::FloatSqrt            0      0.00%     83.02% # Class of committed instruction. (Count)
system.cpu.commitStats0.committedInstType::SimdAdd        10652      0.01%     83.03% # Class of committed instruction. (Count)
system.cpu.commitStats0.committedInstType::SimdAddAcc            0      0.00%     83.03% # Class of committed instruction. (Count)
system.cpu.commitStats0.committedInstType::SimdAlu       159106      0.09%     83.12% # Class of committed instruction. (Count)
system.cpu.commitStats0.committedInstType::SimdCmp           42      0.00%     83.12% # Class of committed instruction. (Count)
system.cpu.commitStats0.committedInstType::SimdCvt        13750      0.01%     83.13% # Class of committed instruction. (Count)
system.cpu.commitStats0.committedInstType::SimdMisc        15046      0.01%     83.14% # Class of committed instruction. (Count)
system.cpu.commitStats0.committedInstType::SimdMult            0      0.00%     83.14% # Class of committed instruction. (Count)
system.cpu.commitStats0.committedInstType::SimdMultAcc            0      0.00%     83.14% # Class of committed instruction. (Count)
system.cpu.commitStats0.committedInstType::SimdMatMultAcc            0      0.00%     83.14% # Class of committed instruction. (Count)
system.cpu.commitStats0.committedInstType::SimdShift         1820      0.00%     83.14% # Class of committed instruction. (Count)
system.cpu.commitStats0.committedInstType::SimdShiftAcc            0      0.00%     83.14% # Class of committed instruction. (Count)
system.cpu.commitStats0.committedInstType::SimdDiv            0      0.00%     83.14% # Class of committed instruction. (Count)
system.cpu.commitStats0.committedInstType::SimdSqrt            0      0.00%     83.14% # Class of committed instruction. (Count)
system.cpu.commitStats0.committedInstType::SimdFloatAdd           72      0.00%     83.14% # Class of committed instruction. (Count)
system.cpu.commitStats0.committedInstType::SimdFloatAlu            0      0.00%     83.14% # Class of committed instruction. (Count)
system.cpu.commitStats0.committedInstType::SimdFloatCmp            0      0.00%     83.14% # Class of committed instruction. (Count)
system.cpu.commitStats0.committedInstType::SimdFloatCvt          144      0.00%     83.14% # Class of committed instruction. (Count)
system.cpu.commitStats0.committedInstType::SimdFloatDiv           72      0.00%     83.14% # Class of committed instruction. (Count)
system.cpu.commitStats0.committedInstType::SimdFloatMisc            0      0.00%     83.14% # Class of committed instruction. (Count)
system.cpu.commitStats0.committedInstType::SimdFloatMult            0      0.00%     83.14% # Class of committed instruction. (Count)
system.cpu.commitStats0.committedInstType::SimdFloatMultAcc            0      0.00%     83.14% # Class of committed instruction. (Count)
system.cpu.commitStats0.committedInstType::SimdFloatMatMultAcc            0      0.00%     83.14% # Class of committed instruction. (Count)
system.cpu.commitStats0.committedInstType::SimdFloatSqrt            0      0.00%     83.14% # Class of committed instruction. (Count)
system.cpu.commitStats0.committedInstType::SimdReduceAdd            0      0.00%     83.14% # Class of committed instruction. (Count)
system.cpu.commitStats0.committedInstType::SimdReduceAlu            0      0.00%     83.14% # Class of committed instruction. (Count)
system.cpu.commitStats0.committedInstType::SimdReduceCmp            0      0.00%     83.14% # Class of committed instruction. (Count)
system.cpu.commitStats0.committedInstType::SimdFloatReduceAdd            0      0.00%     83.14% # Class of committed instruction. (Count)
system.cpu.commitStats0.committedInstType::SimdFloatReduceCmp            0      0.00%     83.14% # Class of committed instruction. (Count)
system.cpu.commitStats0.committedInstType::SimdAes            0      0.00%     83.14% # Class of committed instruction. (Count)
system.cpu.commitStats0.committedInstType::SimdAesMix            0      0.00%     83.14% # Class of committed instruction. (Count)
system.cpu.commitStats0.committedInstType::SimdSha1Hash            0      0.00%     83.14% # Class of committed instruction. (Count)
system.cpu.commitStats0.committedInstType::SimdSha1Hash2            0      0.00%     83.14% # Class of committed instruction. (Count)
system.cpu.commitStats0.committedInstType::SimdSha256Hash            0      0.00%     83.14% # Class of committed instruction. (Count)
system.cpu.commitStats0.committedInstType::SimdSha256Hash2            0      0.00%     83.14% # Class of committed instruction. (Count)
system.cpu.commitStats0.committedInstType::SimdShaSigma2            0      0.00%     83.14% # Class of committed instruction. (Count)
system.cpu.commitStats0.committedInstType::SimdShaSigma3            0      0.00%     83.14% # Class of committed instruction. (Count)
system.cpu.commitStats0.committedInstType::SimdPredAlu            0      0.00%     83.14% # Class of committed instruction. (Count)
system.cpu.commitStats0.committedInstType::Matrix            0      0.00%     83.14% # Class of committed instruction. (Count)
system.cpu.commitStats0.committedInstType::MatrixMov            0      0.00%     83.14% # Class of committed instruction. (Count)
system.cpu.commitStats0.committedInstType::MatrixOP            0      0.00%     83.14% # Class of committed instruction. (Count)
system.cpu.commitStats0.committedInstType::MemRead     24210174     14.41%     97.55% # Class of committed instruction. (Count)
system.cpu.commitStats0.committedInstType::MemWrite      3061227      1.82%     99.37% # Class of committed instruction. (Count)
system.cpu.commitStats0.committedInstType::FloatMemRead       171524      0.10%     99.47% # Class of committed instruction. (Count)
system.cpu.commitStats0.committedInstType::FloatMemWrite       893116      0.53%    100.00% # Class of committed instruction. (Count)
system.cpu.commitStats0.committedInstType::IprAccess            0      0.00%    100.00% # Class of committed instruction. (Count)
system.cpu.commitStats0.committedInstType::InstPrefetch            0      0.00%    100.00% # Class of committed instruction. (Count)
system.cpu.commitStats0.committedInstType::SimdUnitStrideLoad            0      0.00%    100.00% # Class of committed instruction. (Count)
system.cpu.commitStats0.committedInstType::SimdUnitStrideStore            0      0.00%    100.00% # Class of committed instruction. (Count)
system.cpu.commitStats0.committedInstType::SimdUnitStrideMaskLoad            0      0.00%    100.00% # Class of committed instruction. (Count)
system.cpu.commitStats0.committedInstType::SimdUnitStrideMaskStore            0      0.00%    100.00% # Class of committed instruction. (Count)
system.cpu.commitStats0.committedInstType::SimdStridedLoad            0      0.00%    100.00% # Class of committed instruction. (Count)
system.cpu.commitStats0.committedInstType::SimdStridedStore            0      0.00%    100.00% # Class of committed instruction. (Count)
system.cpu.commitStats0.committedInstType::SimdIndexedLoad            0      0.00%    100.00% # Class of committed instruction. (Count)
system.cpu.commitStats0.committedInstType::SimdIndexedStore            0      0.00%    100.00% # Class of committed instruction. (Count)
system.cpu.commitStats0.committedInstType::SimdWholeRegisterLoad            0      0.00%    100.00% # Class of committed instruction. (Count)
system.cpu.commitStats0.committedInstType::SimdWholeRegisterStore            0      0.00%    100.00% # Class of committed instruction. (Count)
system.cpu.commitStats0.committedInstType::SimdUnitStrideFaultOnlyFirstLoad            0      0.00%    100.00% # Class of committed instruction. (Count)
system.cpu.commitStats0.committedInstType::SimdUnitStrideSegmentedLoad            0      0.00%    100.00% # Class of committed instruction. (Count)
system.cpu.commitStats0.committedInstType::SimdUnitStrideSegmentedStore            0      0.00%    100.00% # Class of committed instruction. (Count)
system.cpu.commitStats0.committedInstType::SimdExt            0      0.00%    100.00% # Class of committed instruction. (Count)
system.cpu.commitStats0.committedInstType::SimdFloatExt            0      0.00%    100.00% # Class of committed instruction. (Count)
system.cpu.commitStats0.committedInstType::SimdConfig            0      0.00%    100.00% # Class of committed instruction. (Count)
system.cpu.commitStats0.committedInstType::total    168062174                       # Class of committed instruction. (Count)
system.cpu.commitStats0.committedControl::IsControl     18138439                       # Class of control type instructions committed (Count)
system.cpu.commitStats0.committedControl::IsDirectControl     17963401                       # Class of control type instructions committed (Count)
system.cpu.commitStats0.committedControl::IsIndirectControl       174778                       # Class of control type instructions committed (Count)
system.cpu.commitStats0.committedControl::IsCondControl     16850947                       # Class of control type instructions committed (Count)
system.cpu.commitStats0.committedControl::IsUncondControl      1287232                       # Class of control type instructions committed (Count)
system.cpu.commitStats0.committedControl::IsCall       168580                       # Class of control type instructions committed (Count)
system.cpu.commitStats0.committedControl::IsReturn       168575                       # Class of control type instructions committed (Count)
system.cpu.decode.idleCycles                  7052873                       # Number of cycles decode is idle (Cycle)
system.cpu.decode.blockedCycles              39122129                       # Number of cycles decode is blocked (Cycle)
system.cpu.decode.runCycles                  30823847                       # Number of cycles decode is running (Cycle)
system.cpu.decode.unblockCycles               9280531                       # Number of cycles decode is unblocking (Cycle)
system.cpu.decode.squashCycles                1642020                       # Number of cycles decode is squashing (Cycle)
system.cpu.decode.branchResolved             23703262                       # Number of times decode resolved a branch (Count)
system.cpu.decode.branchMispred                  1751                       # Number of times decode detected a branch misprediction (Count)
system.cpu.decode.decodedInsts              274125647                       # Number of instructions handled by decode (Count)
system.cpu.decode.squashedInsts                  8718                       # Number of squashed instructions handled by decode (Count)
system.cpu.executeStats0.numInsts           228424173                       # Number of executed instructions (Count)
system.cpu.executeStats0.numNop                     0                       # Number of nop insts executed (Count)
system.cpu.executeStats0.numBranches         21795898                       # Number of branches executed (Count)
system.cpu.executeStats0.numLoadInsts        35622647                       # Number of load instructions executed (Count)
system.cpu.executeStats0.numStoreInsts        5037086                       # Number of stores executed (Count)
system.cpu.executeStats0.instRate            2.597940                       # Inst execution rate ((Count/Cycle))
system.cpu.executeStats0.numCCRegReads      110916627                       # Number of times the CC registers were read (Count)
system.cpu.executeStats0.numCCRegWrites      77252885                       # Number of times the CC registers were written (Count)
system.cpu.executeStats0.numFpRegReads        1340384                       # Number of times the floating registers were read (Count)
system.cpu.executeStats0.numFpRegWrites        392202                       # Number of times the floating registers were written (Count)
system.cpu.executeStats0.numIntRegReads     267477948                       # Number of times the integer registers were read (Count)
system.cpu.executeStats0.numIntRegWrites    174125344                       # Number of times the integer registers were written (Count)
system.cpu.executeStats0.numMemRefs          40659733                       # Number of memory refs (Count)
system.cpu.executeStats0.numMiscRegReads     88322492                       # Number of times the Misc registers were read (Count)
system.cpu.executeStats0.numMiscRegWrites          693                       # Number of times the Misc registers were written (Count)
system.cpu.executeStats0.numVecAluAccesses            0                       # Number of vector alu accesses (Count)
system.cpu.executeStats0.numDiscardedOps            0                       # Number of ops (including micro ops) which were discarded before commit (Count)
system.cpu.fetch.predictedBranches           27111560                       # Number of branches that fetch has predicted taken (Count)
system.cpu.fetch.cycles                      84980478                       # Number of cycles fetch has run and was not squashing or blocked (Cycle)
system.cpu.fetch.squashCycles                 3287458                       # Number of cycles fetch has spent squashing (Cycle)
system.cpu.fetch.miscStallCycles                  232                       # Number of cycles fetch has spent waiting on interrupts, or bad addresses, or out of MSHRs (Cycle)
system.cpu.fetch.pendingTrapStallCycles          2164                       # Number of stall cycles due to pending traps (Cycle)
system.cpu.fetch.cacheLines                  32602257                       # Number of cache lines fetched (Count)
[...]
system.mem_ctrl.dram.bwRead::total          278662124                       # Total read bandwidth from this memory ((Byte/Second))
system.mem_ctrl.dram.bwInstRead::cpu.inst    222492797                       # Instruction read bandwidth from this memory ((Byte/Second))
system.mem_ctrl.dram.bwInstRead::total      222492797                       # Instruction read bandwidth from this memory ((Byte/Second))
system.mem_ctrl.dram.bwWrite::writebacks     15457510                       # Write bandwidth from this memory ((Byte/Second))
system.mem_ctrl.dram.bwWrite::total          15457510                       # Write bandwidth from this memory ((Byte/Second))
system.mem_ctrl.dram.bwTotal::writebacks     15457510                       # Total bandwidth to/from this memory ((Byte/Second))
system.mem_ctrl.dram.bwTotal::cpu.inst      222492797                       # Total bandwidth to/from this memory ((Byte/Second))
system.mem_ctrl.dram.bwTotal::cpu.data       35446142                       # Total bandwidth to/from this memory ((Byte/Second))
system.mem_ctrl.dram.bwTotal::cpu.l1d.prefetcher     20723185                       # Total bandwidth to/from this memory ((Byte/Second))
system.mem_ctrl.dram.bwTotal::total         294119633                       # Total bandwidth to/from this memory ((Byte/Second))
system.mem_ctrl.dram.readBursts                424642                       # Number of DRAM read bursts (Count)
system.mem_ctrl.dram.writeBursts                13139                       # Number of DRAM write bursts (Count)
system.mem_ctrl.dram.perBankRdBursts::0          1506                       # Per bank write bursts (Count)
system.mem_ctrl.dram.perBankRdBursts::1         10300                       # Per bank write bursts (Count)
system.mem_ctrl.dram.perBankRdBursts::2          2104                       # Per bank write bursts (Count)
system.mem_ctrl.dram.perBankRdBursts::3         34723                       # Per bank write bursts (Count)
system.mem_ctrl.dram.perBankRdBursts::4          2683                       # Per bank write bursts (Count)
system.mem_ctrl.dram.perBankRdBursts::5          8227                       # Per bank write bursts (Count)
system.mem_ctrl.dram.perBankRdBursts::6          2012                       # Per bank write bursts (Count)
system.mem_ctrl.dram.perBankRdBursts::7          2438                       # Per bank write bursts (Count)
system.mem_ctrl.dram.perBankRdBursts::8          4454                       # Per bank write bursts (Count)
system.mem_ctrl.dram.perBankRdBursts::9         54474                       # Per bank write bursts (Count)
system.mem_ctrl.dram.perBankRdBursts::10       137787                       # Per bank write bursts (Count)
system.mem_ctrl.dram.perBankRdBursts::11        12385                       # Per bank write bursts (Count)
system.mem_ctrl.dram.perBankRdBursts::12        64504                       # Per bank write bursts (Count)
system.mem_ctrl.dram.perBankRdBursts::13        38612                       # Per bank write bursts (Count)
system.mem_ctrl.dram.perBankRdBursts::14        45607                       # Per bank write bursts (Count)
system.mem_ctrl.dram.perBankRdBursts::15         2826                       # Per bank write bursts (Count)
system.mem_ctrl.dram.perBankWrBursts::0           470                       # Per bank write bursts (Count)
system.mem_ctrl.dram.perBankWrBursts::1           577                       # Per bank write bursts (Count)
system.mem_ctrl.dram.perBankWrBursts::2           528                       # Per bank write bursts (Count)
system.mem_ctrl.dram.perBankWrBursts::3           530                       # Per bank write bursts (Count)
system.mem_ctrl.dram.perBankWrBursts::4           567                       # Per bank write bursts (Count)
system.mem_ctrl.dram.perBankWrBursts::5           555                       # Per bank write bursts (Count)
system.mem_ctrl.dram.perBankWrBursts::6           529                       # Per bank write bursts (Count)
system.mem_ctrl.dram.perBankWrBursts::7           738                       # Per bank write bursts (Count)
system.mem_ctrl.dram.perBankWrBursts::8           739                       # Per bank write bursts (Count)
system.mem_ctrl.dram.perBankWrBursts::9          1059                       # Per bank write bursts (Count)
system.mem_ctrl.dram.perBankWrBursts::10         1074                       # Per bank write bursts (Count)
system.mem_ctrl.dram.perBankWrBursts::11         1065                       # Per bank write bursts (Count)
system.mem_ctrl.dram.perBankWrBursts::12         2036                       # Per bank write bursts (Count)
system.mem_ctrl.dram.perBankWrBursts::13          895                       # Per bank write bursts (Count)
system.mem_ctrl.dram.perBankWrBursts::14          895                       # Per bank write bursts (Count)
system.mem_ctrl.dram.perBankWrBursts::15          882                       # Per bank write bursts (Count)
system.mem_ctrl.dram.totQLat               4472495780                       # Total ticks spent queuing (Tick)
system.mem_ctrl.dram.totBusLat             2123210000                       # Total ticks spent in databus transfers (Tick)
system.mem_ctrl.dram.totMemAccLat         12434533280                       # Total ticks spent from burst creation until serviced by the DRAM (Tick)
system.mem_ctrl.dram.avgQLat                 10532.39                       # Average queueing delay per DRAM burst ((Tick/Count))
system.mem_ctrl.dram.avgBusLat                5000.00                       # Average bus latency per DRAM burst ((Tick/Count))
system.mem_ctrl.dram.avgMemAccLat            29282.39                       # Average memory access latency per DRAM burst ((Tick/Count))
system.mem_ctrl.dram.readRowHits               293725                       # Number of row buffer hits during reads (Count)
system.mem_ctrl.dram.writeRowHits               12033                       # Number of row buffer hits during writes (Count)
system.mem_ctrl.dram.readRowHitRate             69.17                       # Row buffer hit rate for reads (Ratio)
system.mem_ctrl.dram.writeRowHitRate            91.58                       # Row buffer hit rate for writes (Ratio)
system.mem_ctrl.dram.bytesPerActivate::samples       132032                       # Bytes accessed per row activation (Byte)
system.mem_ctrl.dram.bytesPerActivate::mean   212.218614                       # Bytes accessed per row activation (Byte)
system.mem_ctrl.dram.bytesPerActivate::gmean   152.143504                       # Bytes accessed per row activation (Byte)
system.mem_ctrl.dram.bytesPerActivate::stdev   200.153552                       # Bytes accessed per row activation (Byte)
system.mem_ctrl.dram.bytesPerActivate::0-127        49291     37.33%     37.33% # Bytes accessed per row activation (Byte)
system.mem_ctrl.dram.bytesPerActivate::128-255        41992     31.80%     69.14% # Bytes accessed per row activation (Byte)
system.mem_ctrl.dram.bytesPerActivate::256-383        21948     16.62%     85.76% # Bytes accessed per row activation (Byte)
system.mem_ctrl.dram.bytesPerActivate::384-511         7377      5.59%     91.35% # Bytes accessed per row activation (Byte)
system.mem_ctrl.dram.bytesPerActivate::512-639         2794      2.12%     93.46% # Bytes accessed per row activation (Byte)
system.mem_ctrl.dram.bytesPerActivate::640-767         1955      1.48%     94.94% # Bytes accessed per row activation (Byte)
system.mem_ctrl.dram.bytesPerActivate::768-895         3271      2.48%     97.42% # Bytes accessed per row activation (Byte)
system.mem_ctrl.dram.bytesPerActivate::896-1023         2295      1.74%     99.16% # Bytes accessed per row activation (Byte)
system.mem_ctrl.dram.bytesPerActivate::1024-1151         1109      0.84%    100.00% # Bytes accessed per row activation (Byte)
system.mem_ctrl.dram.bytesPerActivate::total       132032                       # Bytes accessed per row activation (Byte)
system.mem_ctrl.dram.dramBytesRead           27177088                       # Total bytes read (Byte)
system.mem_ctrl.dram.dramBytesWritten          840896                       # Total bytes written (Byte)
system.mem_ctrl.dram.avgRdBW               271.000697                       # Average DRAM read bandwidth in MiBytes/s ((Byte/Second))
system.mem_ctrl.dram.avgWrBW                 8.385130                       # Average DRAM write bandwidth in MiBytes/s ((Byte/Second))
system.mem_ctrl.dram.peakBW                  12800.00                       # Theoretical peak bandwidth in MiByte/s ((Byte/Second))
system.mem_ctrl.dram.busUtil                     2.18                       # Data bus utilization in percentage (Ratio)
system.mem_ctrl.dram.busUtilRead                 2.12                       # Data bus utilization in percentage for reads (Ratio)
system.mem_ctrl.dram.busUtilWrite                0.07                       # Data bus utilization in percentage for writes (Ratio)
system.mem_ctrl.dram.pageHitRate                69.84                       # Row buffer hit rate, read and write combined (Ratio)
system.mem_ctrl.dram.power_state.pwrStateResidencyTicks::UNDEFINED 100284199499                       # Cumulative time (in ticks) in various power states (Tick)
system.mem_ctrl.dram.rank0.actEnergy        222639480                       # Energy for activate commands per rank (pJ) (Joule)
system.mem_ctrl.dram.rank0.preEnergy        118350870                       # Energy for precharge commands per rank (pJ) (Joule)
system.mem_ctrl.dram.rank0.readEnergy       456910020                       # Energy for read commands per rank (pJ) (Joule)
system.mem_ctrl.dram.rank0.writeEnergy       23458680                       # Energy for write commands per rank (pJ) (Joule)
system.mem_ctrl.dram.rank0.refreshEnergy 7916563200.000001                       # Energy for refresh commands per rank (pJ) (Joule)
system.mem_ctrl.dram.rank0.actBackEnergy  35392724430                       # Energy for active background per rank (pJ) (Joule)
system.mem_ctrl.dram.rank0.preBackEnergy   8704736160                       # Energy for precharge background per rank (pJ) (Joule)
system.mem_ctrl.dram.rank0.actPowerDownEnergy            0                       # Energy for active power-down per rank (pJ) (Joule)
system.mem_ctrl.dram.rank0.prePowerDownEnergy            0                       # Energy for precharge power-down per rank (pJ) (Joule)
system.mem_ctrl.dram.rank0.selfRefreshEnergy            0                       # Energy for self refresh per rank (pJ) (Joule)
system.mem_ctrl.dram.rank0.totalEnergy    52835382840                       # Total energy per rank (pJ) (Joule)
system.mem_ctrl.dram.rank0.averagePower    526.856505                       # Core power per rank (mW) (Watt)
system.mem_ctrl.dram.rank0.totalIdleTime            0                       # Total Idle time Per DRAM Rank (Tick)
system.mem_ctrl.dram.rank0.pwrStateTime::IDLE  22305271564                       # Time in different power states (Tick)
system.mem_ctrl.dram.rank0.pwrStateTime::REF   3348777767                       # Time in different power states (Tick)
system.mem_ctrl.dram.rank0.pwrStateTime::SREF            0                       # Time in different power states (Tick)
system.mem_ctrl.dram.rank0.pwrStateTime::PRE_PDN            0                       # Time in different power states (Tick)
system.mem_ctrl.dram.rank0.pwrStateTime::ACT  74630150168                       # Time in different power states (Tick)
system.mem_ctrl.dram.rank0.pwrStateTime::ACT_PDN            0                       # Time in different power states (Tick)
system.mem_ctrl.dram.rank1.actEnergy        720004740                       # Energy for activate commands per rank (pJ) (Joule)
system.mem_ctrl.dram.rank1.preEnergy        382710570                       # Energy for precharge commands per rank (pJ) (Joule)
system.mem_ctrl.dram.rank1.readEnergy      2575033860                       # Energy for read commands per rank (pJ) (Joule)
system.mem_ctrl.dram.rank1.writeEnergy       45126900                       # Energy for write commands per rank (pJ) (Joule)
system.mem_ctrl.dram.rank1.refreshEnergy 7916563200.000001                       # Energy for refresh commands per rank (pJ) (Joule)
system.mem_ctrl.dram.rank1.actBackEnergy  44534850690                       # Energy for active background per rank (pJ) (Joule)
system.mem_ctrl.dram.rank1.preBackEnergy   1006103520                       # Energy for precharge background per rank (pJ) (Joule)
system.mem_ctrl.dram.rank1.actPowerDownEnergy            0                       # Energy for active power-down per rank (pJ) (Joule)
system.mem_ctrl.dram.rank1.prePowerDownEnergy            0                       # Energy for precharge power-down per rank (pJ) (Joule)
system.mem_ctrl.dram.rank1.selfRefreshEnergy            0                       # Energy for self refresh per rank (pJ) (Joule)
system.mem_ctrl.dram.rank1.totalEnergy    57180393480                       # Total energy per rank (pJ) (Joule)
system.mem_ctrl.dram.rank1.averagePower    570.183476                       # Core power per rank (mW) (Watt)
system.mem_ctrl.dram.rank1.totalIdleTime            0                       # Total Idle time Per DRAM Rank (Tick)
system.mem_ctrl.dram.rank1.pwrStateTime::IDLE   2248855499                       # Time in different power states (Tick)
system.mem_ctrl.dram.rank1.pwrStateTime::REF   3348777767                       # Time in different power states (Tick)
system.mem_ctrl.dram.rank1.pwrStateTime::SREF            0                       # Time in different power states (Tick)
system.mem_ctrl.dram.rank1.pwrStateTime::PRE_PDN            0                       # Time in different power states (Tick)
system.mem_ctrl.dram.rank1.pwrStateTime::ACT  94686566233                       # Time in different power states (Tick)
system.mem_ctrl.dram.rank1.pwrStateTime::ACT_PDN            0                       # Time in different power states (Tick)
system.mem_ctrl.power_state.pwrStateResidencyTicks::UNDEFINED 100284199499                       # Cumulative time (in ticks) in various power states (Tick)
system.membus.transDist::ReadResp              423632                       # Transaction distribution (Count)
system.membus.transDist::WritebackDirty         24221                       # Transaction distribution (Count)
system.membus.transDist::CleanEvict            412428                       # Transaction distribution (Count)
system.membus.transDist::ReadExReq              13016                       # Transaction distribution (Count)
system.membus.transDist::ReadExResp             13016                       # Transaction distribution (Count)
system.membus.transDist::ReadSharedReq         423632                       # Transaction distribution (Count)
system.membus.pktCount_system.cpu.l1d.mem_side_port::system.mem_ctrl.port       264045                       # Packet count per connected requestor and responder (Count)
system.membus.pktCount_system.cpu.l1d.mem_side_port::total       264045                       # Packet count per connected requestor and responder (Count)
system.membus.pktCount_system.cpu.l1i.mem_side_port::system.mem_ctrl.port      1045900                       # Packet count per connected requestor and responder (Count)
system.membus.pktCount_system.cpu.l1i.mem_side_port::total      1045900                       # Packet count per connected requestor and responder (Count)
system.membus.pktCount::total                 1309945                       # Packet count per connected requestor and responder (Count)
system.membus.pktSize_system.cpu.l1d.mem_side_port::system.mem_ctrl.port      7183104                       # Cumulative packet size per connected requestor and responder (Byte)
system.membus.pktSize_system.cpu.l1d.mem_side_port::total      7183104                       # Cumulative packet size per connected requestor and responder (Byte)
system.membus.pktSize_system.cpu.l1i.mem_side_port::system.mem_ctrl.port     22312512                       # Cumulative packet size per connected requestor and responder (Byte)
system.membus.pktSize_system.cpu.l1i.mem_side_port::total     22312512                       # Cumulative packet size per connected requestor and responder (Byte)
system.membus.pktSize::total                 29495616                       # Cumulative packet size per connected requestor and responder (Byte)
system.membus.snoops                                0                       # Total snoops (Count)
system.membus.snoopTraffic                          0                       # Total snoop traffic (Byte)
system.membus.snoopFanout::samples             436648                       # Request fanout histogram (Count)
system.membus.snoopFanout::mean              0.000046                       # Request fanout histogram (Count)
system.membus.snoopFanout::stdev             0.006768                       # Request fanout histogram (Count)
system.membus.snoopFanout::underflows               0      0.00%      0.00% # Request fanout histogram (Count)
system.membus.snoopFanout::0                   436628    100.00%    100.00% # Request fanout histogram (Count)
system.membus.snoopFanout::1                       20      0.00%    100.00% # Request fanout histogram (Count)
system.membus.snoopFanout::2                        0      0.00%    100.00% # Request fanout histogram (Count)
system.membus.snoopFanout::overflows                0      0.00%    100.00% # Request fanout histogram (Count)
system.membus.snoopFanout::min_value                0                       # Request fanout histogram (Count)
system.membus.snoopFanout::max_value                1                       # Request fanout histogram (Count)
system.membus.snoopFanout::total               436648                       # Request fanout histogram (Count)
system.membus.power_state.pwrStateResidencyTicks::UNDEFINED 100284199499                       # Cumulative time (in ticks) in various power states (Tick)
system.membus.reqLayer2.occupancy         13069444650                       # Layer occupancy (ticks) (Tick)
system.membus.reqLayer2.utilization               0.1                       # Layer utilization (Ratio)
system.membus.respLayer2.occupancy         5958868454                       # Layer occupancy (ticks) (Tick)
system.membus.respLayer2.utilization              0.1                       # Layer utilization (Ratio)
system.membus.respLayer3.occupancy        23733323778                       # Layer occupancy (ticks) (Tick)
system.membus.respLayer3.utilization              0.2                       # Layer utilization (Ratio)
system.membus.snoop_filter.totRequests         873297                       # Total number of requests made to the snoop filter. (Count)
system.membus.snoop_filter.hitSingleRequests       436648                       # Number of requests hitting in the snoop filter with a single holder of the requested data. (Count)
system.membus.snoop_filter.hitMultiRequests           21                       # Number of requests hitting in the snoop filter with multiple (>1) holders of the requested data. (Count)
system.membus.snoop_filter.totSnoops                0                       # Total number of snoops made to the snoop filter. (Count)
system.membus.snoop_filter.hitSingleSnoops            0                       # Number of snoops hitting in the snoop filter with a single holder of the requested data. (Count)
system.membus.snoop_filter.hitMultiSnoops            0                       # Number of snoops hitting in the snoop filter with multiple (>1) holders of the requested data. (Count)
system.workload.inst.arm                            0                       # number of arm instructions executed (Count)
system.workload.inst.quiesce                        0                       # number of quiesce instructions executed (Count)

---------- End Simulation Statistics   ----------
