
---------- Begin Simulation Statistics ----------
simSeconds                                   7.376371                       # Number of seconds simulated (Second)
simTicks                                 7376370519460                       # Number of ticks simulated (Tick)
finalTick                                7376370519460                       # Number of ticks from beginning of simulation (restored from checkpoints and never reset) (Tick)
simFreq                                  1000000000000                       # The number of ticks per simulated second ((Tick/Second))
hostSeconds                                     90.24                       # Real time elapsed on the host (Second)
hostTickRate                              81737685599                       # The number of ticks simulated per host second (ticks/s) ((Tick/Second))
hostMemory                                    8654068                       # Number of bytes of host memory used (Byte)
simInsts                                     24654478                       # Number of instructions simulated (Count)
simOps                                       43632742                       # Number of ops (including micro ops) simulated (Count)
hostInstRate                                   273196                       # Simulator instruction rate (inst/s) ((Count/Second))
hostOpRate                                     483495                       # Simulator op (including micro ops) rate (op/s) ((Count/Second))
system.clk_domain.clock                         13333                       # Clock period in ticks (Tick)
system.clk_domain.voltage_domain.voltage            1                       # Voltage in Volts (Volt)
system.cpu.numCycles                        553241620                       # Number of cpu cycles simulated (Cycle)
system.cpu.cpi                              22.439119                       # CPI: cycles per instruction (core level) ((Cycle/Count))
system.cpu.ipc                               0.044565                       # IPC: instructions per cycle (core level) ((Count/Cycle))
system.cpu.numWorkItemsStarted                      0                       # Number of work items this cpu started (Count)
system.cpu.numWorkItemsCompleted                    0                       # Number of work items this cpu completed (Count)
system.cpu.branchPred.lookups_0::NoBranch          314      0.01%      0.01% # Number of BP lookups (Count)
system.cpu.branchPred.lookups_0::Return        158140      3.44%      3.45% # Number of BP lookups (Count)
system.cpu.branchPred.lookups_0::CallDirect       157366      3.43%      6.88% # Number of BP lookups (Count)
system.cpu.branchPred.lookups_0::CallIndirect          779      0.02%      6.90% # Number of BP lookups (Count)
system.cpu.branchPred.lookups_0::DirectCond      4071995     88.70%     95.60% # Number of BP lookups (Count)
system.cpu.branchPred.lookups_0::DirectUncond       177286      3.86%     99.46% # Number of BP lookups (Count)
system.cpu.branchPred.lookups_0::IndirectCond            0      0.00%     99.46% # Number of BP lookups (Count)
system.cpu.branchPred.lookups_0::IndirectUncond        24893      0.54%    100.00% # Number of BP lookups (Count)
system.cpu.branchPred.lookups_0::total        4590773                       # Number of BP lookups (Count)
system.cpu.branchPred.squashes_0::NoBranch            0                       # Number of branches that got squashed (completely removed) as an earlier branch was mispredicted. (Count)
system.cpu.branchPred.squashes_0::Return            0                       # Number of branches that got squashed (completely removed) as an earlier branch was mispredicted. (Count)
system.cpu.branchPred.squashes_0::CallDirect            0                       # Number of branches that got squashed (completely removed) as an earlier branch was mispredicted. (Count)
system.cpu.branchPred.squashes_0::CallIndirect            0                       # Number of branches that got squashed (completely removed) as an earlier branch was mispredicted. (Count)
system.cpu.branchPred.squashes_0::DirectCond            0                       # Number of branches that got squashed (completely removed) as an earlier branch was mispredicted. (Count)
system.cpu.branchPred.squashes_0::DirectUncond            0                       # Number of branches that got squashed (completely removed) as an earlier branch was mispredicted. (Count)
system.cpu.branchPred.squashes_0::IndirectCond            0                       # Number of branches that got squashed (completely removed) as an earlier branch was mispredicted. (Count)
system.cpu.branchPred.squashes_0::IndirectUncond            0                       # Number of branches that got squashed (completely removed) as an earlier branch was mispredicted. (Count)
system.cpu.branchPred.squashes_0::total             0                       # Number of branches that got squashed (completely removed) as an earlier branch was mispredicted. (Count)
system.cpu.branchPred.corrected_0::NoBranch          314      0.12%      0.12% # Number of branches that got corrected but not yet commited. Branches get corrected by decode or after execute. Also a branch misprediction can be detected out-of-order. Therefore, a corrected branch might not end up beeing committed in case an even earlier branch was mispredicted (Count)
system.cpu.branchPred.corrected_0::Return            8      0.00%      0.12% # Number of branches that got corrected but not yet commited. Branches get corrected by decode or after execute. Also a branch misprediction can be detected out-of-order. Therefore, a corrected branch might not end up beeing committed in case an even earlier branch was mispredicted (Count)
system.cpu.branchPred.corrected_0::CallDirect          980      0.37%      0.50% # Number of branches that got corrected but not yet commited. Branches get corrected by decode or after execute. Also a branch misprediction can be detected out-of-order. Therefore, a corrected branch might not end up beeing committed in case an even earlier branch was mispredicted (Count)
system.cpu.branchPred.corrected_0::CallIndirect          287      0.11%      0.61% # Number of branches that got corrected but not yet commited. Branches get corrected by decode or after execute. Also a branch misprediction can be detected out-of-order. Therefore, a corrected branch might not end up beeing committed in case an even earlier branch was mispredicted (Count)
system.cpu.branchPred.corrected_0::DirectCond       258280     98.44%     99.04% # Number of branches that got corrected but not yet commited. Branches get corrected by decode or after execute. Also a branch misprediction can be detected out-of-order. Therefore, a corrected branch might not end up beeing committed in case an even earlier branch was mispredicted (Count)
system.cpu.branchPred.corrected_0::DirectUncond          568      0.22%     99.26% # Number of branches that got corrected but not yet commited. Branches get corrected by decode or after execute. Also a branch misprediction can be detected out-of-order. Therefore, a corrected branch might not end up beeing committed in case an even earlier branch was mispredicted (Count)
system.cpu.branchPred.corrected_0::IndirectCond            0      0.00%     99.26% # Number of branches that got corrected but not yet commited. Branches get corrected by decode or after execute. Also a branch misprediction can be detected out-of-order. Therefore, a corrected branch might not end up beeing committed in case an even earlier branch was mispredicted (Count)
system.cpu.branchPred.corrected_0::IndirectUncond         1948      0.74%    100.00% # Number of branches that got corrected but not yet commited. Branches get corrected by decode or after execute. Also a branch misprediction can be detected out-of-order. Therefore, a corrected branch might not end up beeing committed in case an even earlier branch was mispredicted (Count)
system.cpu.branchPred.corrected_0::total       262385                       # Number of branches that got corrected but not yet commited. Branches get corrected by decode or after execute. Also a branch misprediction can be detected out-of-order. Therefore, a corrected branch might not end up beeing committed in case an even earlier branch was mispredicted (Count)
system.cpu.branchPred.earlyResteers_0::NoBranch            0                       # Number of branches that got redirected after decode. (Count)
system.cpu.branchPred.earlyResteers_0::Return            0                       # Number of branches that got redirected after decode. (Count)
system.cpu.branchPred.earlyResteers_0::CallDirect            0                       # Number of branches that got redirected after decode. (Count)
system.cpu.branchPred.earlyResteers_0::CallIndirect            0                       # Number of branches that got redirected after decode. (Count)
system.cpu.branchPred.earlyResteers_0::DirectCond            0                       # Number of branches that got redirected after decode. (Count)
system.cpu.branchPred.earlyResteers_0::DirectUncond            0                       # Number of branches that got redirected after decode. (Count)
system.cpu.branchPred.earlyResteers_0::IndirectCond            0                       # Number of branches that got redirected after decode. (Count)
system.cpu.branchPred.earlyResteers_0::IndirectUncond            0                       # Number of branches that got redirected after decode. (Count)
system.cpu.branchPred.earlyResteers_0::total            0                       # Number of branches that got redirected after decode. (Count)
system.cpu.branchPred.committed_0::NoBranch          314      0.01%      0.01% # Number of branches finally committed  (Count)
system.cpu.branchPred.committed_0::Return       158140      3.44%      3.45% # Number of branches finally committed  (Count)
system.cpu.branchPred.committed_0::CallDirect       157365      3.43%      6.88% # Number of branches finally committed  (Count)
system.cpu.branchPred.committed_0::CallIndirect          779      0.02%      6.90% # Number of branches finally committed  (Count)
system.cpu.branchPred.committed_0::DirectCond      4071995     88.70%     95.60% # Number of branches finally committed  (Count)
system.cpu.branchPred.committed_0::DirectUncond       177286      3.86%     99.46% # Number of branches finally committed  (Count)
system.cpu.branchPred.committed_0::IndirectCond            0      0.00%     99.46% # Number of branches finally committed  (Count)
system.cpu.branchPred.committed_0::IndirectUncond        24893      0.54%    100.00% # Number of branches finally committed  (Count)
system.cpu.branchPred.committed_0::total      4590772                       # Number of branches finally committed  (Count)
system.cpu.branchPred.mispredicted_0::NoBranch          314      0.12%      0.12% # Number of committed branches that were mispredicted. (Count)
system.cpu.branchPred.mispredicted_0::Return            8      0.00%      0.12% # Number of committed branches that were mispredicted. (Count)
system.cpu.branchPred.mispredicted_0::CallDirect          949      0.36%      0.48% # Number of committed branches that were mispredicted. (Count)
system.cpu.branchPred.mispredicted_0::CallIndirect          256      0.10%      0.58% # Number of committed branches that were mispredicted. (Count)
system.cpu.branchPred.mispredicted_0::DirectCond       258274     98.49%     99.07% # Number of committed branches that were mispredicted. (Count)
system.cpu.branchPred.mispredicted_0::DirectUncond          563      0.21%     99.28% # Number of committed branches that were mispredicted. (Count)
system.cpu.branchPred.mispredicted_0::IndirectCond            0      0.00%     99.28% # Number of committed branches that were mispredicted. (Count)
system.cpu.branchPred.mispredicted_0::IndirectUncond         1880      0.72%    100.00% # Number of committed branches that were mispredicted. (Count)
system.cpu.branchPred.mispredicted_0::total       262244                       # Number of committed branches that were mispredicted. (Count)
system.cpu.branchPred.targetProvider_0::NoTarget      1579903     34.41%     34.41% # The component providing the target for taken branches (Count)
system.cpu.branchPred.targetProvider_0::BTB      2828663     61.62%     96.03% # The component providing the target for taken branches (Count)
system.cpu.branchPred.targetProvider_0::RAS       158140      3.44%     99.48% # The component providing the target for taken branches (Count)
system.cpu.branchPred.targetProvider_0::Indirect        24067      0.52%    100.00% # The component providing the target for taken branches (Count)
system.cpu.branchPred.targetProvider_0::total      4590773                       # The component providing the target for taken branches (Count)
system.cpu.branchPred.targetWrong_0::NoBranch       103197     39.65%     39.65% # Number of branches where the target was incorrect or not available at prediction time. (Count)
system.cpu.branchPred.targetWrong_0::Return       156564     60.15%     99.79% # Number of branches where the target was incorrect or not available at prediction time. (Count)
system.cpu.branchPred.targetWrong_0::CallDirect            8      0.00%     99.80% # Number of branches where the target was incorrect or not available at prediction time. (Count)
system.cpu.branchPred.targetWrong_0::CallIndirect          531      0.20%    100.00% # Number of branches where the target was incorrect or not available at prediction time. (Count)
system.cpu.branchPred.targetWrong_0::DirectCond            0      0.00%    100.00% # Number of branches where the target was incorrect or not available at prediction time. (Count)
system.cpu.branchPred.targetWrong_0::DirectUncond            0      0.00%    100.00% # Number of branches where the target was incorrect or not available at prediction time. (Count)
system.cpu.branchPred.targetWrong_0::IndirectCond            0      0.00%    100.00% # Number of branches where the target was incorrect or not available at prediction time. (Count)
system.cpu.branchPred.targetWrong_0::IndirectUncond            0      0.00%    100.00% # Number of branches where the target was incorrect or not available at prediction time. (Count)
system.cpu.branchPred.targetWrong_0::total       260300                       # Number of branches where the target was incorrect or not available at prediction time. (Count)
system.cpu.branchPred.condPredicted           4072309                       # Number of conditional branches predicted (Count)
system.cpu.branchPred.condPredictedTaken      2497385                       # Number of conditional branches predicted as taken (Count)
system.cpu.branchPred.condIncorrect            262385                       # Number of conditional branches incorrect (Count)
system.cpu.branchPred.predTakenBTBMiss           1968                       # Number of branches predicted taken but missed in BTB (Count)
system.cpu.branchPred.NotTakenMispredicted       105102                       # Number branches predicted 'not taken' but turned out to be taken (Count)
system.cpu.branchPred.TakenMispredicted        157283                       # Number branches predicted taken but are actually not taken (Count)
system.cpu.branchPred.BTBLookups              4590773                       # Number of BTB lookups (Count)
system.cpu.branchPred.BTBUpdates               102545                       # Number of BTB updates (Count)
system.cpu.branchPred.BTBHits                 3639177                       # Number of BTB hits (Count)
system.cpu.branchPred.BTBHitRatio            0.792716                       # BTB Hit Ratio (Ratio)
system.cpu.branchPred.BTBMispredicted            3043                       # Number BTB mispredictions. No target found or target wrong (Count)
system.cpu.branchPred.indirectLookups           25672                       # Number of indirect predictor lookups. (Count)
system.cpu.branchPred.indirectHits              24067                       # Number of indirect target hits. (Count)
system.cpu.branchPred.indirectMisses             1605                       # Number of indirect misses. (Count)
system.cpu.branchPred.indirectMispredicted            0                       # Number of mispredicted indirect branches. (Count)
system.cpu.branchPred.btb.lookups::NoBranch          314      0.01%      0.01% # Number of BTB lookups (Count)
system.cpu.branchPred.btb.lookups::Return       158140      3.44%      3.45% # Number of BTB lookups (Count)
system.cpu.branchPred.btb.lookups::CallDirect       157366      3.43%      6.88% # Number of BTB lookups (Count)
system.cpu.branchPred.btb.lookups::CallIndirect          779      0.02%      6.90% # Number of BTB lookups (Count)
system.cpu.branchPred.btb.lookups::DirectCond      4071995     88.70%     95.60% # Number of BTB lookups (Count)
system.cpu.branchPred.btb.lookups::DirectUncond       177286      3.86%     99.46% # Number of BTB lookups (Count)
system.cpu.branchPred.btb.lookups::IndirectCond            0      0.00%     99.46% # Number of BTB lookups (Count)
system.cpu.branchPred.btb.lookups::IndirectUncond        24893      0.54%    100.00% # Number of BTB lookups (Count)
system.cpu.branchPred.btb.lookups::total      4590773                       # Number of BTB lookups (Count)
system.cpu.branchPred.btb.misses::NoBranch            0      0.00%      0.00% # Number of BTB misses (Count)
system.cpu.branchPred.btb.misses::Return       158139     16.62%     16.62% # Number of BTB misses (Count)
system.cpu.branchPred.btb.misses::CallDirect          950      0.10%     16.72% # Number of BTB misses (Count)
system.cpu.branchPred.btb.misses::CallIndirect          779      0.08%     16.80% # Number of BTB misses (Count)
system.cpu.branchPred.btb.misses::DirectCond       766284     80.53%     97.33% # Number of BTB misses (Count)
system.cpu.branchPred.btb.misses::DirectUncond          551      0.06%     97.38% # Number of BTB misses (Count)
system.cpu.branchPred.btb.misses::IndirectCond            0      0.00%     97.38% # Number of BTB misses (Count)
system.cpu.branchPred.btb.misses::IndirectUncond        24893      2.62%    100.00% # Number of BTB misses (Count)
system.cpu.branchPred.btb.misses::total        951596                       # Number of BTB misses (Count)
system.cpu.branchPred.btb.updates::NoBranch            0      0.00%      0.00% # Number of BTB updates (Count)
system.cpu.branchPred.btb.updates::Return            0      0.00%      0.00% # Number of BTB updates (Count)
system.cpu.branchPred.btb.updates::CallDirect          980      0.96%      0.96% # Number of BTB updates (Count)
system.cpu.branchPred.btb.updates::CallIndirect            0      0.00%      0.96% # Number of BTB updates (Count)
system.cpu.branchPred.btb.updates::DirectCond       100997     98.49%     99.45% # Number of BTB updates (Count)
system.cpu.branchPred.btb.updates::DirectUncond          568      0.55%    100.00% # Number of BTB updates (Count)
system.cpu.branchPred.btb.updates::IndirectCond            0      0.00%    100.00% # Number of BTB updates (Count)
system.cpu.branchPred.btb.updates::IndirectUncond            0      0.00%    100.00% # Number of BTB updates (Count)
system.cpu.branchPred.btb.updates::total       102545                       # Number of BTB updates (Count)
system.cpu.branchPred.btb.mispredict::NoBranch            0      0.00%      0.00% # Number of BTB mispredictions. No target found or target wrong. (Count)
system.cpu.branchPred.btb.mispredict::Return            0      0.00%      0.00% # Number of BTB mispredictions. No target found or target wrong. (Count)
system.cpu.branchPred.btb.mispredict::CallDirect          980      0.96%      0.96% # Number of BTB mispredictions. No target found or target wrong. (Count)
system.cpu.branchPred.btb.mispredict::CallIndirect            0      0.00%      0.96% # Number of BTB mispredictions. No target found or target wrong. (Count)
system.cpu.branchPred.btb.mispredict::DirectCond       100997     98.49%     99.45% # Number of BTB mispredictions. No target found or target wrong. (Count)
system.cpu.branchPred.btb.mispredict::DirectUncond          568      0.55%    100.00% # Number of BTB mispredictions. No target found or target wrong. (Count)
system.cpu.branchPred.btb.mispredict::IndirectCond            0      0.00%    100.00% # Number of BTB mispredictions. No target found or target wrong. (Count)
system.cpu.branchPred.btb.mispredict::IndirectUncond            0      0.00%    100.00% # Number of BTB mispredictions. No target found or target wrong. (Count)
system.cpu.branchPred.btb.mispredict::total       102545                       # Number of BTB mispredictions. No target found or target wrong. (Count)
system.cpu.branchPred.btb.power_state.pwrStateResidencyTicks::UNDEFINED 7376370519460                       # Cumulative time (in ticks) in various power states (Tick)
system.cpu.branchPred.indirectBranchPred.lookups        25672                       # Number of lookups (Count)
system.cpu.branchPred.indirectBranchPred.hits        24067                       # Number of hits of a tag (Count)
system.cpu.branchPred.indirectBranchPred.misses         1605                       # Number of misses (Count)
system.cpu.branchPred.indirectBranchPred.targetRecords         2235                       # Number of targets that where recorded/installed in the cache (Count)
system.cpu.branchPred.indirectBranchPred.indirectRecords        27907                       # Number of indirect branches/calls recorded in the indirect hist (Count)
system.cpu.branchPred.indirectBranchPred.speculativeOverflows            0                       # Number of times more than the allowed capacity for speculative branches/calls where in flight and destroy the path history (Count)
system.cpu.branchPred.ras.pushes               158145                       # Number of times a PC was pushed onto the RAS (Count)
system.cpu.branchPred.ras.pops                 158140                       # Number of times a PC was poped from the RAS (Count)
system.cpu.branchPred.ras.squashes                  0                       # Number of times the stack operation was squashed due to wrong speculation. (Count)
system.cpu.branchPred.ras.used                 158140                       # Number of times the RAS is the provider (Count)
system.cpu.branchPred.ras.correct              158132                       # Number of times the RAS is the provider and the prediction is correct (Count)
system.cpu.branchPred.ras.incorrect                 8                       # Number of times the RAS is the provider and the prediction is wrong (Count)
system.cpu.commitStats0.numInsts             24655229                       # Number of instructions committed (thread level) (Count)
system.cpu.commitStats0.numOps               43633718                       # Number of ops (including micro ops) committed (thread level) (Count)
system.cpu.commitStats0.numInstsNotNOP              0                       # Number of instructions committed excluding NOPs or prefetches (Count)
system.cpu.commitStats0.numOpsNotNOP                0                       # Number of Ops (including micro ops) Simulated (Count)
system.cpu.commitStats0.cpi                 22.439119                       # CPI: cycles per instruction (thread level) ((Cycle/Count))
system.cpu.commitStats0.ipc                  0.044565                       # IPC: instructions per cycle (thread level) ((Count/Cycle))
system.cpu.commitStats0.numMemRefs                  0                       # Number of memory references committed (Count)
system.cpu.commitStats0.numFpInsts            3417718                       # Number of float instructions (Count)
system.cpu.commitStats0.numIntInsts          41552268                       # Number of integer instructions (Count)
system.cpu.commitStats0.numLoadInsts          7169249                       # Number of load instructions (Count)
system.cpu.commitStats0.numStoreInsts         2183076                       # Number of store instructions (Count)
system.cpu.commitStats0.numVecInsts                 0                       # Number of vector instructions (Count)
system.cpu.commitStats0.committedInstType::No_OpClass       274488      0.63%      0.63% # Class of committed instruction. (Count)
system.cpu.commitStats0.committedInstType::IntAlu     32216511     73.83%     74.46% # Class of committed instruction. (Count)
system.cpu.commitStats0.committedInstType::IntMult         6963      0.02%     74.48% # Class of committed instruction. (Count)
system.cpu.commitStats0.committedInstType::IntDiv        39992      0.09%     74.57% # Class of committed instruction. (Count)
system.cpu.commitStats0.committedInstType::FloatAdd       762813      1.75%     76.32% # Class of committed instruction. (Count)
system.cpu.commitStats0.committedInstType::FloatCmp            0      0.00%     76.32% # Class of committed instruction. (Count)
system.cpu.commitStats0.committedInstType::FloatCvt         1456      0.00%     76.32% # Class of committed instruction. (Count)
system.cpu.commitStats0.committedInstType::FloatMult            0      0.00%     76.32% # Class of committed instruction. (Count)
system.cpu.commitStats0.committedInstType::FloatMultAcc            0      0.00%     76.32% # Class of committed instruction. (Count)
system.cpu.commitStats0.committedInstType::FloatDiv            0      0.00%     76.32% # Class of committed instruction. (Count)
system.cpu.commitStats0.committedInstType::FloatMisc            0      0.00%     76.32% # Class of committed instruction. (Count)
system.cpu.commitStats0.committedInstType::FloatSqrt            0      0.00%     76.32% # Class of committed instruction. (Count)
system.cpu.commitStats0.committedInstType::SimdAdd         6892      0.02%     76.34% # Class of committed instruction. (Count)
system.cpu.commitStats0.committedInstType::SimdAddAcc            0      0.00%     76.34% # Class of committed instruction. (Count)
system.cpu.commitStats0.committedInstType::SimdAlu        94833      0.22%     76.56% # Class of committed instruction. (Count)
system.cpu.commitStats0.committedInstType::SimdCmp            6      0.00%     76.56% # Class of committed instruction. (Count)
system.cpu.commitStats0.committedInstType::SimdCvt        14240      0.03%     76.59% # Class of committed instruction. (Count)
system.cpu.commitStats0.committedInstType::SimdMisc        74511      0.17%     76.76% # Class of committed instruction. (Count)
system.cpu.commitStats0.committedInstType::SimdMult            0      0.00%     76.76% # Class of committed instruction. (Count)
system.cpu.commitStats0.committedInstType::SimdMultAcc            0      0.00%     76.76% # Class of committed instruction. (Count)
system.cpu.commitStats0.committedInstType::SimdMatMultAcc            0      0.00%     76.76% # Class of committed instruction. (Count)
system.cpu.commitStats0.committedInstType::SimdShift         1859      0.00%     76.76% # Class of committed instruction. (Count)
system.cpu.commitStats0.committedInstType::SimdShiftAcc            0      0.00%     76.76% # Class of committed instruction. (Count)
system.cpu.commitStats0.committedInstType::SimdDiv            0      0.00%     76.76% # Class of committed instruction. (Count)
system.cpu.commitStats0.committedInstType::SimdSqrt            0      0.00%     76.76% # Class of committed instruction. (Count)
system.cpu.commitStats0.committedInstType::SimdFloatAdd           16      0.00%     76.76% # Class of committed instruction. (Count)
system.cpu.commitStats0.committedInstType::SimdFloatAlu            0      0.00%     76.76% # Class of committed instruction. (Count)
system.cpu.commitStats0.committedInstType::SimdFloatCmp            0      0.00%     76.76% # Class of committed instruction. (Count)
system.cpu.commitStats0.committedInstType::SimdFloatCvt       776797      1.78%     78.54% # Class of committed instruction. (Count)
system.cpu.commitStats0.committedInstType::SimdFloatDiv        10016      0.02%     78.57% # Class of committed instruction. (Count)
system.cpu.commitStats0.committedInstType::SimdFloatMisc            0      0.00%     78.57% # Class of committed instruction. (Count)
system.cpu.commitStats0.committedInstType::SimdFloatMult            0      0.00%     78.57% # Class of committed instruction. (Count)
system.cpu.commitStats0.committedInstType::SimdFloatMultAcc            0      0.00%     78.57% # Class of committed instruction. (Count)
system.cpu.commitStats0.committedInstType::SimdFloatMatMultAcc            0      0.00%     78.57% # Class of committed instruction. (Count)
system.cpu.commitStats0.committedInstType::SimdFloatSqrt            0      0.00%     78.57% # Class of committed instruction. (Count)
system.cpu.commitStats0.committedInstType::SimdReduceAdd            0      0.00%     78.57% # Class of committed instruction. (Count)
system.cpu.commitStats0.committedInstType::SimdReduceAlu            0      0.00%     78.57% # Class of committed instruction. (Count)
system.cpu.commitStats0.committedInstType::SimdReduceCmp            0      0.00%     78.57% # Class of committed instruction. (Count)
system.cpu.commitStats0.committedInstType::SimdFloatReduceAdd            0      0.00%     78.57% # Class of committed instruction. (Count)
system.cpu.commitStats0.committedInstType::SimdFloatReduceCmp            0      0.00%     78.57% # Class of committed instruction. (Count)
system.cpu.commitStats0.committedInstType::SimdAes            0      0.00%     78.57% # Class of committed instruction. (Count)
system.cpu.commitStats0.committedInstType::SimdAesMix            0      0.00%     78.57% # Class of committed instruction. (Count)
system.cpu.commitStats0.committedInstType::SimdSha1Hash            0      0.00%     78.57% # Class of committed instruction. (Count)
system.cpu.commitStats0.committedInstType::SimdSha1Hash2            0      0.00%     78.57% # Class of committed instruction. (Count)
system.cpu.commitStats0.committedInstType::SimdSha256Hash            0      0.00%     78.57% # Class of committed instruction. (Count)
system.cpu.commitStats0.committedInstType::SimdSha256Hash2            0      0.00%     78.57% # Class of committed instruction. (Count)
system.cpu.commitStats0.committedInstType::SimdShaSigma2            0      0.00%     78.57% # Class of committed instruction. (Count)
system.cpu.commitStats0.committedInstType::SimdShaSigma3            0      0.00%     78.57% # Class of committed instruction. (Count)
system.cpu.commitStats0.committedInstType::SimdPredAlu            0      0.00%     78.57% # Class of committed instruction. (Count)
system.cpu.commitStats0.committedInstType::Matrix            0      0.00%     78.57% # Class of committed instruction. (Count)
system.cpu.commitStats0.committedInstType::MatrixMov            0      0.00%     78.57% # Class of committed instruction. (Count)
system.cpu.commitStats0.committedInstType::MatrixOP            0      0.00%     78.57% # Class of committed instruction. (Count)
system.cpu.commitStats0.committedInstType::MemRead      6074837     13.92%     92.49% # Class of committed instruction. (Count)
system.cpu.commitStats0.committedInstType::MemWrite      1648629      3.78%     96.27% # Class of committed instruction. (Count)
system.cpu.commitStats0.committedInstType::FloatMemRead      1094412      2.51%     98.78% # Class of committed instruction. (Count)
system.cpu.commitStats0.committedInstType::FloatMemWrite       534447      1.22%    100.00% # Class of committed instruction. (Count)
system.cpu.commitStats0.committedInstType::IprAccess            0      0.00%    100.00% # Class of committed instruction. (Count)
system.cpu.commitStats0.committedInstType::InstPrefetch            0      0.00%    100.00% # Class of committed instruction. (Count)
system.cpu.commitStats0.committedInstType::SimdUnitStrideLoad            0      0.00%    100.00% # Class of committed instruction. (Count)
system.cpu.commitStats0.committedInstType::SimdUnitStrideStore            0      0.00%    100.00% # Class of committed instruction. (Count)
system.cpu.commitStats0.committedInstType::SimdUnitStrideMaskLoad            0      0.00%    100.00% # Class of committed instruction. (Count)
system.cpu.commitStats0.committedInstType::SimdUnitStrideMaskStore            0      0.00%    100.00% # Class of committed instruction. (Count)
system.cpu.commitStats0.committedInstType::SimdStridedLoad            0      0.00%    100.00% # Class of committed instruction. (Count)
system.cpu.commitStats0.committedInstType::SimdStridedStore            0      0.00%    100.00% # Class of committed instruction. (Count)
system.cpu.commitStats0.committedInstType::SimdIndexedLoad            0      0.00%    100.00% # Class of committed instruction. (Count)
system.cpu.commitStats0.committedInstType::SimdIndexedStore            0      0.00%    100.00% # Class of committed instruction. (Count)
system.cpu.commitStats0.committedInstType::SimdWholeRegisterLoad            0      0.00%    100.00% # Class of committed instruction. (Count)
system.cpu.commitStats0.committedInstType::SimdWholeRegisterStore            0      0.00%    100.00% # Class of committed instruction. (Count)
system.cpu.commitStats0.committedInstType::SimdUnitStrideFaultOnlyFirstLoad            0      0.00%    100.00% # Class of committed instruction. (Count)
system.cpu.commitStats0.committedInstType::SimdUnitStrideSegmentedLoad            0      0.00%    100.00% # Class of committed instruction. (Count)
system.cpu.commitStats0.committedInstType::SimdUnitStrideSegmentedStore            0      0.00%    100.00% # Class of committed instruction. (Count)
system.cpu.commitStats0.committedInstType::SimdExt            0      0.00%    100.00% # Class of committed instruction. (Count)
system.cpu.commitStats0.committedInstType::SimdFloatExt            0      0.00%    100.00% # Class of committed instruction. (Count)
system.cpu.commitStats0.committedInstType::SimdConfig            0      0.00%    100.00% # Class of committed instruction. (Count)
system.cpu.commitStats0.committedInstType::total     43633718                       # Class of committed instruction. (Count)
system.cpu.commitStats0.committedControl::IsControl      4590773                       # Class of control type instructions committed (Count)
system.cpu.commitStats0.committedControl::IsDirectControl      4406647                       # Class of control type instructions committed (Count)
system.cpu.commitStats0.committedControl::IsIndirectControl       183812                       # Class of control type instructions committed (Count)
system.cpu.commitStats0.committedControl::IsCondControl      4071995                       # Class of control type instructions committed (Count)
system.cpu.commitStats0.committedControl::IsUncondControl       518464                       # Class of control type instructions committed (Count)
system.cpu.commitStats0.committedControl::IsCall       158145                       # Class of control type instructions committed (Count)
system.cpu.commitStats0.committedControl::IsReturn       158140                       # Class of control type instructions committed (Count)
system.cpu.exec_context.thread_0.numMatAluAccesses            0                       # Number of matrix alu accesses (Count)
system.cpu.exec_context.thread_0.numCallsReturns       316285                       # Number of times a function call or return occured (Count)
system.cpu.exec_context.thread_0.numMatInsts            0                       # Number of matrix instructions (Count)
system.cpu.exec_context.thread_0.numIdleCycles            0                       # Number of idle cycles (Cycle)
system.cpu.exec_context.thread_0.numBusyCycles    553241620                       # Number of busy cycles (Cycle)
system.cpu.exec_context.thread_0.notIdleFraction            1                       # Percentage of non-idle cycles (Ratio)
system.cpu.exec_context.thread_0.idleFraction            0                       # Percentage of idle cycles (Ratio)
system.cpu.exec_context.thread_0.numPredictedBranches      3010870                       # Number of branches predicted as taken (Count)
system.cpu.exec_context.thread_0.numBranchMispred       262385                       # Number of branch mispredictions (Count)
system.cpu.executeStats0.numInsts                   0                       # Number of executed instructions (Count)
system.cpu.executeStats0.numNop                     0                       # Number of nop insts executed (Count)
system.cpu.executeStats0.numBranches                0                       # Number of branches executed (Count)
system.cpu.executeStats0.numLoadInsts               0                       # Number of load instructions executed (Count)
system.cpu.executeStats0.numStoreInsts        9352325                       # Number of stores executed (Count)
system.cpu.executeStats0.instRate                   0                       # Inst execution rate ((Count/Cycle))
system.cpu.executeStats0.numFpAluAccesses      3417718                       # Number of float alu accesses (Count)
system.cpu.executeStats0.numFpRegReads        2691786                       # Number of times the floating registers were read (Count)
system.cpu.executeStats0.numFpRegWrites       2107470                       # Number of times the floating registers were written (Count)
system.cpu.executeStats0.numIntAluAccesses     41552268                       # Number of integer alu accesses (Count)
system.cpu.executeStats0.numIntRegReads      50180287                       # Number of times the integer registers were read (Count)
system.cpu.executeStats0.numIntRegWrites     30289926                       # Number of times the integer registers were written (Count)
system.cpu.executeStats0.numMemRefs           9352325                       # Number of memory refs (Count)
system.cpu.executeStats0.numMiscRegReads     18443919                       # Number of times the Misc registers were read (Count)
system.cpu.executeStats0.numMiscRegWrites          819                       # Number of times the Misc registers were written (Count)
system.cpu.executeStats0.numVecAluAccesses            0                       # Number of vector alu accesses (Count)
system.cpu.executeStats0.numDiscardedOps            0                       # Number of ops (including micro ops) which were discarded before commit (Count)
system.cpu.fetchStats0.numInsts              24655229                       # Number of instructions fetched (thread level) (Count)
system.cpu.fetchStats0.numOps                43633718                       # Number of ops (including micro ops) fetched (thread level) (Count)
system.cpu.fetchStats0.fetchRate             0.044565                       # Number of inst fetches per cycle ((Count/Cycle))
system.cpu.fetchStats0.numBranches            4590773                       # Number of branches fetched (Count)
system.cpu.fetchStats0.branchRate            0.008298                       # Number of branch fetches per cycle (Ratio)
system.cpu.fetchStats0.numFetchSuspends             0                       # Number of times Execute suspended instruction fetching (Count)
system.cpu.interrupts.clk_domain.clock         213328                       # Clock period in ticks (Tick)
system.cpu.mmu.dtb.rdAccesses                 7169279                       # TLB accesses on read requests (Count)
system.cpu.mmu.dtb.wrAccesses                 2183106                       # TLB accesses on write requests (Count)
system.cpu.mmu.dtb.rdMisses                      2875                       # TLB misses on read requests (Count)
system.cpu.mmu.dtb.wrMisses                      1304                       # TLB misses on write requests (Count)
system.cpu.mmu.dtb.walker.power_state.pwrStateResidencyTicks::UNDEFINED 7376370519460                       # Cumulative time (in ticks) in various power states (Tick)
system.cpu.mmu.itb.rdAccesses                       0                       # TLB accesses on read requests (Count)
system.cpu.mmu.itb.wrAccesses                31987910                       # TLB accesses on write requests (Count)
system.cpu.mmu.itb.rdMisses                         0                       # TLB misses on read requests (Count)
system.cpu.mmu.itb.wrMisses                       994                       # TLB misses on write requests (Count)
system.cpu.mmu.itb.walker.power_state.pwrStateResidencyTicks::UNDEFINED 7376370519460                       # Cumulative time (in ticks) in various power states (Tick)
system.cpu.power_state.pwrStateResidencyTicks::ON 7376370519460                       # Cumulative time (in ticks) in various power states (Tick)
system.cpu.thread_0.numInsts                        0                       # Number of Instructions committed (Count)
system.cpu.thread_0.numOps                          0                       # Number of Ops committed (Count)
system.cpu.thread_0.numMemRefs                      0                       # Number of Memory References (Count)
system.cpu.workload.numSyscalls                   144                       # Number of system calls (Count)
system.mem_ctrl.avgPriority_cpu.inst::samples  31987764.00                       # Average QoS priority value for accepted requests (Count)
system.mem_ctrl.avgPriority_cpu.data::samples   6847458.00                       # Average QoS priority value for accepted requests (Count)
system.mem_ctrl.priorityMinLatency       0.000000018750                       # per QoS priority minimum request to response latency (Second)
system.mem_ctrl.priorityMaxLatency       0.261609534186                       # per QoS priority maximum request to response latency (Second)
system.mem_ctrl.numReadWriteTurnArounds          5601                       # Number of turnarounds from READ to WRITE (Count)
system.mem_ctrl.numWriteReadTurnArounds          5601                       # Number of turnarounds from WRITE to READ (Count)
system.mem_ctrl.numStayReadState             81546100                       # Number of times bus staying in READ state (Count)
system.mem_ctrl.numStayWriteState               95243                       # Number of times bus staying in WRITE state (Count)
system.mem_ctrl.readReqs                     39156746                       # Number of read requests accepted (Count)
system.mem_ctrl.writeReqs                     2182570                       # Number of write requests accepted (Count)
system.mem_ctrl.readBursts                   39156746                       # Number of controller read bursts, including those serviced by the write queue (Count)
system.mem_ctrl.writeBursts                   2182570                       # Number of controller write bursts, including those merged in the write queue (Count)
system.mem_ctrl.servicedByWrQ                  422082                       # Number of controller read bursts serviced by the write queue (Count)
system.mem_ctrl.mergedWrBursts                2082012                       # Number of controller write bursts merged with an existing one (Count)
system.mem_ctrl.neitherReadNorWriteReqs             0                       # Number of requests that are neither read nor write (Count)
system.mem_ctrl.avgRdQLen                        1.00                       # Average read queue length when enqueuing ((Count/Tick))
system.mem_ctrl.avgWrQLen                       25.95                       # Average write queue length when enqueuing ((Count/Tick))
system.mem_ctrl.numRdRetry                          0                       # Number of times read queue was full causing retry (Count)
system.mem_ctrl.numWrRetry                          0                       # Number of times write queue was full causing retry (Count)
system.mem_ctrl.readPktSize::0                1281402                       # Read request sizes (log2) (Count)
system.mem_ctrl.readPktSize::1                 124988                       # Read request sizes (log2) (Count)
system.mem_ctrl.readPktSize::2                  98175                       # Read request sizes (log2) (Count)
system.mem_ctrl.readPktSize::3               37652181                       # Read request sizes (log2) (Count)
system.mem_ctrl.readPktSize::4                      0                       # Read request sizes (log2) (Count)
system.mem_ctrl.readPktSize::5                      0                       # Read request sizes (log2) (Count)
system.mem_ctrl.readPktSize::6                      0                       # Read request sizes (log2) (Count)
system.mem_ctrl.writePktSize::0                314254                       # Write request sizes (log2) (Count)
system.mem_ctrl.writePktSize::1                 51539                       # Write request sizes (log2) (Count)
system.mem_ctrl.writePktSize::2                 29410                       # Write request sizes (log2) (Count)
system.mem_ctrl.writePktSize::3               1787367                       # Write request sizes (log2) (Count)
system.mem_ctrl.writePktSize::4                     0                       # Write request sizes (log2) (Count)
system.mem_ctrl.writePktSize::5                     0                       # Write request sizes (log2) (Count)
system.mem_ctrl.writePktSize::6                     0                       # Write request sizes (log2) (Count)
system.mem_ctrl.rdQLenPdf::0                 38734636                       # What read queue length does an incoming req see (Count)
system.mem_ctrl.rdQLenPdf::1                       28                       # What read queue length does an incoming req see (Count)
system.mem_ctrl.rdQLenPdf::2                        0                       # What read queue length does an incoming req see (Count)
system.mem_ctrl.rdQLenPdf::3                        0                       # What read queue length does an incoming req see (Count)
system.mem_ctrl.rdQLenPdf::4                        0                       # What read queue length does an incoming req see (Count)
system.mem_ctrl.rdQLenPdf::5                        0                       # What read queue length does an incoming req see (Count)
system.mem_ctrl.rdQLenPdf::6                        0                       # What read queue length does an incoming req see (Count)
system.mem_ctrl.rdQLenPdf::7                        0                       # What read queue length does an incoming req see (Count)
system.mem_ctrl.rdQLenPdf::8                        0                       # What read queue length does an incoming req see (Count)
system.mem_ctrl.rdQLenPdf::9                        0                       # What read queue length does an incoming req see (Count)
system.mem_ctrl.rdQLenPdf::10                       0                       # What read queue length does an incoming req see (Count)
system.mem_ctrl.rdQLenPdf::11                       0                       # What read queue length does an incoming req see (Count)
system.mem_ctrl.rdQLenPdf::12                       0                       # What read queue length does an incoming req see (Count)
system.mem_ctrl.rdQLenPdf::13                       0                       # What read queue length does an incoming req see (Count)
system.mem_ctrl.rdQLenPdf::14                       0                       # What read queue length does an incoming req see (Count)
system.mem_ctrl.rdQLenPdf::15                       0                       # What read queue length does an incoming req see (Count)
system.mem_ctrl.rdQLenPdf::16                       0                       # What read queue length does an incoming req see (Count)
system.mem_ctrl.rdQLenPdf::17                       0                       # What read queue length does an incoming req see (Count)
system.mem_ctrl.rdQLenPdf::18                       0                       # What read queue length does an incoming req see (Count)
system.mem_ctrl.rdQLenPdf::19                       0                       # What read queue length does an incoming req see (Count)
system.mem_ctrl.rdQLenPdf::20                       0                       # What read queue length does an incoming req see (Count)
system.mem_ctrl.rdQLenPdf::21                       0                       # What read queue length does an incoming req see (Count)
system.mem_ctrl.rdQLenPdf::22                       0                       # What read queue length does an incoming req see (Count)
system.mem_ctrl.rdQLenPdf::23                       0                       # What read queue length does an incoming req see (Count)
system.mem_ctrl.rdQLenPdf::24                       0                       # What read queue length does an incoming req see (Count)
system.mem_ctrl.rdQLenPdf::25                       0                       # What read queue length does an incoming req see (Count)
system.mem_ctrl.rdQLenPdf::26                       0                       # What read queue length does an incoming req see (Count)
system.mem_ctrl.rdQLenPdf::27                       0                       # What read queue length does an incoming req see (Count)
system.mem_ctrl.rdQLenPdf::28                       0                       # What read queue length does an incoming req see (Count)
system.mem_ctrl.rdQLenPdf::29                       0                       # What read queue length does an incoming req see (Count)
system.mem_ctrl.rdQLenPdf::30                       0                       # What read queue length does an incoming req see (Count)
system.mem_ctrl.rdQLenPdf::31                       0                       # What read queue length does an incoming req see (Count)
system.mem_ctrl.wrQLenPdf::0                        1                       # What write queue length does an incoming req see (Count)
system.mem_ctrl.wrQLenPdf::1                        1                       # What write queue length does an incoming req see (Count)
system.mem_ctrl.wrQLenPdf::2                        1                       # What write queue length does an incoming req see (Count)
system.mem_ctrl.wrQLenPdf::3                        1                       # What write queue length does an incoming req see (Count)
system.mem_ctrl.wrQLenPdf::4                        1                       # What write queue length does an incoming req see (Count)
system.mem_ctrl.wrQLenPdf::5                        1                       # What write queue length does an incoming req see (Count)
system.mem_ctrl.wrQLenPdf::6                        1                       # What write queue length does an incoming req see (Count)
system.mem_ctrl.wrQLenPdf::7                        1                       # What write queue length does an incoming req see (Count)
system.mem_ctrl.wrQLenPdf::8                        1                       # What write queue length does an incoming req see (Count)
system.mem_ctrl.wrQLenPdf::9                        1                       # What write queue length does an incoming req see (Count)
system.mem_ctrl.wrQLenPdf::10                       1                       # What write queue length does an incoming req see (Count)
system.mem_ctrl.wrQLenPdf::11                       1                       # What write queue length does an incoming req see (Count)
system.mem_ctrl.wrQLenPdf::12                       1                       # What write queue length does an incoming req see (Count)
system.mem_ctrl.wrQLenPdf::13                       1                       # What write queue length does an incoming req see (Count)
system.mem_ctrl.wrQLenPdf::14                       1                       # What write queue length does an incoming req see (Count)
system.mem_ctrl.wrQLenPdf::15                    5452                       # What write queue length does an incoming req see (Count)
system.mem_ctrl.wrQLenPdf::16                    5473                       # What write queue length does an incoming req see (Count)
system.mem_ctrl.wrQLenPdf::17                    5602                       # What write queue length does an incoming req see (Count)
system.mem_ctrl.wrQLenPdf::18                    5602                       # What write queue length does an incoming req see (Count)
system.mem_ctrl.wrQLenPdf::19                    5601                       # What write queue length does an incoming req see (Count)
system.mem_ctrl.wrQLenPdf::20                    5601                       # What write queue length does an incoming req see (Count)
system.mem_ctrl.wrQLenPdf::21                    5601                       # What write queue length does an incoming req see (Count)
system.mem_ctrl.wrQLenPdf::22                    5601                       # What write queue length does an incoming req see (Count)
system.mem_ctrl.wrQLenPdf::23                    5601                       # What write queue length does an incoming req see (Count)
system.mem_ctrl.wrQLenPdf::24                    5601                       # What write queue length does an incoming req see (Count)
system.mem_ctrl.wrQLenPdf::25                    5601                       # What write queue length does an incoming req see (Count)
system.mem_ctrl.wrQLenPdf::26                    5601                       # What write queue length does an incoming req see (Count)
system.mem_ctrl.wrQLenPdf::27                    5601                       # What write queue length does an incoming req see (Count)
system.mem_ctrl.wrQLenPdf::28                    5601                       # What write queue length does an incoming req see (Count)
system.mem_ctrl.wrQLenPdf::29                    5601                       # What write queue length does an incoming req see (Count)
system.mem_ctrl.wrQLenPdf::30                    5601                       # What write queue length does an incoming req see (Count)
system.mem_ctrl.wrQLenPdf::31                    5601                       # What write queue length does an incoming req see (Count)
system.mem_ctrl.wrQLenPdf::32                    5601                       # What write queue length does an incoming req see (Count)
system.mem_ctrl.wrQLenPdf::33                       0                       # What write queue length does an incoming req see (Count)
system.mem_ctrl.wrQLenPdf::34                       0                       # What write queue length does an incoming req see (Count)
system.mem_ctrl.wrQLenPdf::35                       0                       # What write queue length does an incoming req see (Count)
system.mem_ctrl.wrQLenPdf::36                       0                       # What write queue length does an incoming req see (Count)
system.mem_ctrl.wrQLenPdf::37                       0                       # What write queue length does an incoming req see (Count)
system.mem_ctrl.wrQLenPdf::38                       0                       # What write queue length does an incoming req see (Count)
system.mem_ctrl.wrQLenPdf::39                       0                       # What write queue length does an incoming req see (Count)
system.mem_ctrl.wrQLenPdf::40                       0                       # What write queue length does an incoming req see (Count)
system.mem_ctrl.wrQLenPdf::41                       0                       # What write queue length does an incoming req see (Count)
system.mem_ctrl.wrQLenPdf::42                       0                       # What write queue length does an incoming req see (Count)
system.mem_ctrl.wrQLenPdf::43                       0                       # What write queue length does an incoming req see (Count)
system.mem_ctrl.wrQLenPdf::44                       0                       # What write queue length does an incoming req see (Count)
system.mem_ctrl.wrQLenPdf::45                       0                       # What write queue length does an incoming req see (Count)
system.mem_ctrl.wrQLenPdf::46                       0                       # What write queue length does an incoming req see (Count)
system.mem_ctrl.wrQLenPdf::47                       0                       # What write queue length does an incoming req see (Count)
system.mem_ctrl.wrQLenPdf::48                       0                       # What write queue length does an incoming req see (Count)
system.mem_ctrl.wrQLenPdf::49                       0                       # What write queue length does an incoming req see (Count)
system.mem_ctrl.wrQLenPdf::50                       0                       # What write queue length does an incoming req see (Count)
system.mem_ctrl.wrQLenPdf::51                       0                       # What write queue length does an incoming req see (Count)
system.mem_ctrl.wrQLenPdf::52                       0                       # What write queue length does an incoming req see (Count)
system.mem_ctrl.wrQLenPdf::53                       0                       # What write queue length does an incoming req see (Count)
system.mem_ctrl.wrQLenPdf::54                       0                       # What write queue length does an incoming req see (Count)
system.mem_ctrl.wrQLenPdf::55                       0                       # What write queue length does an incoming req see (Count)
system.mem_ctrl.wrQLenPdf::56                       0                       # What write queue length does an incoming req see (Count)
system.mem_ctrl.wrQLenPdf::57                       0                       # What write queue length does an incoming req see (Count)
system.mem_ctrl.wrQLenPdf::58                       0                       # What write queue length does an incoming req see (Count)
system.mem_ctrl.wrQLenPdf::59                       0                       # What write queue length does an incoming req see (Count)
system.mem_ctrl.wrQLenPdf::60                       0                       # What write queue length does an incoming req see (Count)
system.mem_ctrl.wrQLenPdf::61                       0                       # What write queue length does an incoming req see (Count)
system.mem_ctrl.wrQLenPdf::62                       0                       # What write queue length does an incoming req see (Count)
system.mem_ctrl.wrQLenPdf::63                       0                       # What write queue length does an incoming req see (Count)
system.mem_ctrl.rdPerTurnAround::samples         5601                       # Reads before turning the bus around for writes (Count)
system.mem_ctrl.rdPerTurnAround::mean     6915.595251                       # Reads before turning the bus around for writes (Count)
system.mem_ctrl.rdPerTurnAround::stdev   15817.454242                       # Reads before turning the bus around for writes (Count)
system.mem_ctrl.rdPerTurnAround::0-16383         4635     82.75%     82.75% # Reads before turning the bus around for writes (Count)
system.mem_ctrl.rdPerTurnAround::16384-32767          714     12.75%     95.50% # Reads before turning the bus around for writes (Count)
system.mem_ctrl.rdPerTurnAround::32768-49151          202      3.61%     99.11% # Reads before turning the bus around for writes (Count)
system.mem_ctrl.rdPerTurnAround::49152-65535           25      0.45%     99.55% # Reads before turning the bus around for writes (Count)
system.mem_ctrl.rdPerTurnAround::65536-81919            5      0.09%     99.64% # Reads before turning the bus around for writes (Count)
system.mem_ctrl.rdPerTurnAround::81920-98303            7      0.12%     99.77% # Reads before turning the bus around for writes (Count)
system.mem_ctrl.rdPerTurnAround::98304-114687            3      0.05%     99.82% # Reads before turning the bus around for writes (Count)
system.mem_ctrl.rdPerTurnAround::114688-131071            1      0.02%     99.84% # Reads before turning the bus around for writes (Count)
system.mem_ctrl.rdPerTurnAround::180224-196607            1      0.02%     99.86% # Reads before turning the bus around for writes (Count)
system.mem_ctrl.rdPerTurnAround::212992-229375            3      0.05%     99.91% # Reads before turning the bus around for writes (Count)
system.mem_ctrl.rdPerTurnAround::245760-262143            1      0.02%     99.93% # Reads before turning the bus around for writes (Count)
system.mem_ctrl.rdPerTurnAround::278528-294911            2      0.04%     99.96% # Reads before turning the bus around for writes (Count)
system.mem_ctrl.rdPerTurnAround::344064-360447            2      0.04%    100.00% # Reads before turning the bus around for writes (Count)
system.mem_ctrl.rdPerTurnAround::total           5601                       # Reads before turning the bus around for writes (Count)
system.mem_ctrl.wrPerTurnAround::samples         5601                       # Writes before turning the bus around for reads (Count)
system.mem_ctrl.wrPerTurnAround::mean       17.950187                       # Writes before turning the bus around for reads (Count)
system.mem_ctrl.wrPerTurnAround::gmean      17.947390                       # Writes before turning the bus around for reads (Count)
system.mem_ctrl.wrPerTurnAround::stdev       0.305632                       # Writes before turning the bus around for reads (Count)
system.mem_ctrl.wrPerTurnAround::16               129      2.30%      2.30% # Writes before turning the bus around for reads (Count)
system.mem_ctrl.wrPerTurnAround::17                21      0.37%      2.68% # Writes before turning the bus around for reads (Count)
system.mem_ctrl.wrPerTurnAround::18              5451     97.32%    100.00% # Writes before turning the bus around for reads (Count)
system.mem_ctrl.wrPerTurnAround::total           5601                       # Writes before turning the bus around for reads (Count)
system.mem_ctrl.bytesReadWrQ                 27013248                       # Total number of bytes read from write queue (Byte)
system.mem_ctrl.bytesReadSys                303141487                       # Total read bytes from the system interface side (Byte)
system.mem_ctrl.bytesWrittenSys              14833882                       # Total written bytes from the system interface side (Byte)
system.mem_ctrl.avgRdBWSys               41096293.38714292                       # Average system read bandwidth in Byte/s ((Byte/Second))
system.mem_ctrl.avgWrBWSys               2011000.12002731                       # Average system write bandwidth in Byte/s ((Byte/Second))
system.mem_ctrl.totGap                   7376370319465                       # Total gap between requests (Tick)
system.mem_ctrl.avgGap                      178434.75                       # Average gap between requests ((Tick/Count))
system.mem_ctrl.requestorReadBytes::cpu.inst    255902112                       # Per-requestor bytes read from memory (Byte)
system.mem_ctrl.requestorReadBytes::cpu.data     43987555                       # Per-requestor bytes read from memory (Byte)
system.mem_ctrl.requestorWriteBytes::cpu.data       786681                       # Per-requestor bytes write to memory (Byte)
system.mem_ctrl.requestorReadRate::cpu.inst 34692144.507233045995                       # Per-requestor bytes read from memory rate ((Byte/Second))
system.mem_ctrl.requestorReadRate::cpu.data 5963306.057356265374                       # Per-requestor bytes read from memory rate ((Byte/Second))
system.mem_ctrl.requestorWriteRate::cpu.data 106648.791288969893                       # Per-requestor bytes write to memory rate ((Byte/Second))
system.mem_ctrl.requestorReadAccesses::cpu.inst     31987764                       # Per-requestor read serviced memory accesses (Count)
system.mem_ctrl.requestorReadAccesses::cpu.data      7168982                       # Per-requestor read serviced memory accesses (Count)
system.mem_ctrl.requestorWriteAccesses::cpu.data      2182570                       # Per-requestor write serviced memory accesses (Count)
system.mem_ctrl.requestorReadTotalLat::cpu.inst 783377726416                       # Per-requestor read total memory access latency (Tick)
system.mem_ctrl.requestorReadTotalLat::cpu.data 190534506273                       # Per-requestor read total memory access latency (Tick)
system.mem_ctrl.requestorWriteTotalLat::cpu.data 189259501846071                       # Per-requestor write total memory access latency (Tick)
system.mem_ctrl.requestorReadAvgLat::cpu.inst     24489.92                       # Per-requestor read average memory access latency ((Tick/Count))
system.mem_ctrl.requestorReadAvgLat::cpu.data     26577.62                       # Per-requestor read average memory access latency ((Tick/Count))
system.mem_ctrl.requestorWriteAvgLat::cpu.data  86714058.13                       # Per-requestor write average memory access latency ((Tick/Count))
system.mem_ctrl.dram.bytesRead::cpu.inst    255902104                       # Number of bytes read from this memory (Byte)
system.mem_ctrl.dram.bytesRead::cpu.data     47239375                       # Number of bytes read from this memory (Byte)
system.mem_ctrl.dram.bytesRead::total       303141479                       # Number of bytes read from this memory (Byte)
system.mem_ctrl.dram.bytesInstRead::cpu.inst    255902104                       # Number of instructions bytes read from this memory (Byte)
system.mem_ctrl.dram.bytesInstRead::total    255902104                       # Number of instructions bytes read from this memory (Byte)
system.mem_ctrl.dram.bytesWritten::cpu.data     14833882                       # Number of bytes written to this memory (Byte)
system.mem_ctrl.dram.bytesWritten::total     14833882                       # Number of bytes written to this memory (Byte)
system.mem_ctrl.dram.numReads::cpu.inst      31987763                       # Number of read requests responded to by this memory (Count)
system.mem_ctrl.dram.numReads::cpu.data       7168982                       # Number of read requests responded to by this memory (Count)
system.mem_ctrl.dram.numReads::total         39156745                       # Number of read requests responded to by this memory (Count)
system.mem_ctrl.dram.numWrites::cpu.data      2182570                       # Number of write requests responded to by this memory (Count)
system.mem_ctrl.dram.numWrites::total         2182570                       # Number of write requests responded to by this memory (Count)
system.mem_ctrl.dram.bwRead::cpu.inst        34692143                       # Total read bandwidth from this memory ((Byte/Second))
system.mem_ctrl.dram.bwRead::cpu.data         6404149                       # Total read bandwidth from this memory ((Byte/Second))
system.mem_ctrl.dram.bwRead::total           41096292                       # Total read bandwidth from this memory ((Byte/Second))
system.mem_ctrl.dram.bwInstRead::cpu.inst     34692143                       # Instruction read bandwidth from this memory ((Byte/Second))
system.mem_ctrl.dram.bwInstRead::total       34692143                       # Instruction read bandwidth from this memory ((Byte/Second))
system.mem_ctrl.dram.bwWrite::cpu.data        2011000                       # Write bandwidth from this memory ((Byte/Second))
system.mem_ctrl.dram.bwWrite::total           2011000                       # Write bandwidth from this memory ((Byte/Second))
system.mem_ctrl.dram.bwTotal::cpu.inst       34692143                       # Total bandwidth to/from this memory ((Byte/Second))
system.mem_ctrl.dram.bwTotal::cpu.data        8415149                       # Total bandwidth to/from this memory ((Byte/Second))
system.mem_ctrl.dram.bwTotal::total          43107292                       # Total bandwidth to/from this memory ((Byte/Second))
system.mem_ctrl.dram.readBursts              38734664                       # Number of DRAM read bursts (Count)
system.mem_ctrl.dram.writeBursts               100539                       # Number of DRAM write bursts (Count)
system.mem_ctrl.dram.perBankRdBursts::0       2468186                       # Per bank write bursts (Count)
system.mem_ctrl.dram.perBankRdBursts::1       3529309                       # Per bank write bursts (Count)
system.mem_ctrl.dram.perBankRdBursts::2        450634                       # Per bank write bursts (Count)
system.mem_ctrl.dram.perBankRdBursts::3        408176                       # Per bank write bursts (Count)
system.mem_ctrl.dram.perBankRdBursts::4       3760238                       # Per bank write bursts (Count)
system.mem_ctrl.dram.perBankRdBursts::5       2624541                       # Per bank write bursts (Count)
system.mem_ctrl.dram.perBankRdBursts::6       2809790                       # Per bank write bursts (Count)
system.mem_ctrl.dram.perBankRdBursts::7       1771905                       # Per bank write bursts (Count)
system.mem_ctrl.dram.perBankRdBursts::8       3367051                       # Per bank write bursts (Count)
system.mem_ctrl.dram.perBankRdBursts::9       3241835                       # Per bank write bursts (Count)
system.mem_ctrl.dram.perBankRdBursts::10       170483                       # Per bank write bursts (Count)
system.mem_ctrl.dram.perBankRdBursts::11       321543                       # Per bank write bursts (Count)
system.mem_ctrl.dram.perBankRdBursts::12      9934808                       # Per bank write bursts (Count)
system.mem_ctrl.dram.perBankRdBursts::13      1094088                       # Per bank write bursts (Count)
system.mem_ctrl.dram.perBankRdBursts::14      2620758                       # Per bank write bursts (Count)
system.mem_ctrl.dram.perBankRdBursts::15       161319                       # Per bank write bursts (Count)
system.mem_ctrl.dram.perBankWrBursts::0          1537                       # Per bank write bursts (Count)
system.mem_ctrl.dram.perBankWrBursts::1          1654                       # Per bank write bursts (Count)
system.mem_ctrl.dram.perBankWrBursts::2          1783                       # Per bank write bursts (Count)
system.mem_ctrl.dram.perBankWrBursts::3          2109                       # Per bank write bursts (Count)
system.mem_ctrl.dram.perBankWrBursts::4          1961                       # Per bank write bursts (Count)
system.mem_ctrl.dram.perBankWrBursts::5          8802                       # Per bank write bursts (Count)
system.mem_ctrl.dram.perBankWrBursts::6         10339                       # Per bank write bursts (Count)
system.mem_ctrl.dram.perBankWrBursts::7         19091                       # Per bank write bursts (Count)
system.mem_ctrl.dram.perBankWrBursts::8          6563                       # Per bank write bursts (Count)
system.mem_ctrl.dram.perBankWrBursts::9          6736                       # Per bank write bursts (Count)
system.mem_ctrl.dram.perBankWrBursts::10         7297                       # Per bank write bursts (Count)
system.mem_ctrl.dram.perBankWrBursts::11         7975                       # Per bank write bursts (Count)
system.mem_ctrl.dram.perBankWrBursts::12         7830                       # Per bank write bursts (Count)
system.mem_ctrl.dram.perBankWrBursts::13         6999                       # Per bank write bursts (Count)
system.mem_ctrl.dram.perBankWrBursts::14         5785                       # Per bank write bursts (Count)
system.mem_ctrl.dram.perBankWrBursts::15         4078                       # Per bank write bursts (Count)
system.mem_ctrl.dram.totQLat             247637282689                       # Total ticks spent queuing (Tick)
system.mem_ctrl.dram.totBusLat           193673320000                       # Total ticks spent in databus transfers (Tick)
system.mem_ctrl.dram.totMemAccLat        973912232689                       # Total ticks spent from burst creation until serviced by the DRAM (Tick)
system.mem_ctrl.dram.avgQLat                  6393.17                       # Average queueing delay per DRAM burst ((Tick/Count))
system.mem_ctrl.dram.avgBusLat                5000.00                       # Average bus latency per DRAM burst ((Tick/Count))
system.mem_ctrl.dram.avgMemAccLat            25143.17                       # Average memory access latency per DRAM burst ((Tick/Count))
system.mem_ctrl.dram.readRowHits             33906325                       # Number of row buffer hits during reads (Count)
system.mem_ctrl.dram.writeRowHits               83404                       # Number of row buffer hits during writes (Count)
system.mem_ctrl.dram.readRowHitRate             87.53                       # Row buffer hit rate for reads (Ratio)
system.mem_ctrl.dram.writeRowHitRate            82.96                       # Row buffer hit rate for writes (Ratio)
system.mem_ctrl.dram.bytesPerActivate::samples      4845470                       # Bytes accessed per row activation (Byte)
system.mem_ctrl.dram.bytesPerActivate::mean   512.943344                       # Bytes accessed per row activation (Byte)
system.mem_ctrl.dram.bytesPerActivate::gmean   328.804944                       # Bytes accessed per row activation (Byte)
system.mem_ctrl.dram.bytesPerActivate::stdev   395.135150                       # Bytes accessed per row activation (Byte)
system.mem_ctrl.dram.bytesPerActivate::0-127       898304     18.54%     18.54% # Bytes accessed per row activation (Byte)
system.mem_ctrl.dram.bytesPerActivate::128-255       971455     20.05%     38.59% # Bytes accessed per row activation (Byte)
system.mem_ctrl.dram.bytesPerActivate::256-383       426964      8.81%     47.40% # Bytes accessed per row activation (Byte)
system.mem_ctrl.dram.bytesPerActivate::384-511       311440      6.43%     53.83% # Bytes accessed per row activation (Byte)
system.mem_ctrl.dram.bytesPerActivate::512-639       364359      7.52%     61.35% # Bytes accessed per row activation (Byte)
system.mem_ctrl.dram.bytesPerActivate::640-767       154177      3.18%     64.53% # Bytes accessed per row activation (Byte)
system.mem_ctrl.dram.bytesPerActivate::768-895       117799      2.43%     66.96% # Bytes accessed per row activation (Byte)
system.mem_ctrl.dram.bytesPerActivate::896-1023        90529      1.87%     68.83% # Bytes accessed per row activation (Byte)
system.mem_ctrl.dram.bytesPerActivate::1024-1151      1510443     31.17%    100.00% # Bytes accessed per row activation (Byte)
system.mem_ctrl.dram.bytesPerActivate::total      4845470                       # Bytes accessed per row activation (Byte)
system.mem_ctrl.dram.dramBytesRead         2479018496                       # Total bytes read (Byte)
system.mem_ctrl.dram.dramBytesWritten         6434496                       # Total bytes written (Byte)
system.mem_ctrl.dram.avgRdBW               336.075647                       # Average DRAM read bandwidth in MiBytes/s ((Byte/Second))
system.mem_ctrl.dram.avgWrBW                 0.872312                       # Average DRAM write bandwidth in MiBytes/s ((Byte/Second))
system.mem_ctrl.dram.peakBW                  12800.00                       # Theoretical peak bandwidth in MiByte/s ((Byte/Second))
system.mem_ctrl.dram.busUtil                     2.63                       # Data bus utilization in percentage (Ratio)
system.mem_ctrl.dram.busUtilRead                 2.63                       # Data bus utilization in percentage for reads (Ratio)
system.mem_ctrl.dram.busUtilWrite                0.01                       # Data bus utilization in percentage for writes (Ratio)
system.mem_ctrl.dram.pageHitRate                87.52                       # Row buffer hit rate, read and write combined (Ratio)
system.mem_ctrl.dram.power_state.pwrStateResidencyTicks::UNDEFINED 7376370519460                       # Cumulative time (in ticks) in various power states (Tick)
system.mem_ctrl.dram.rank0.actEnergy      17986074120                       # Energy for activate commands per rank (pJ) (Joule)
system.mem_ctrl.dram.rank0.preEnergy       9559813725                       # Energy for precharge commands per rank (pJ) (Joule)
system.mem_ctrl.dram.rank0.readEnergy    127254642060                       # Energy for read commands per rank (pJ) (Joule)
system.mem_ctrl.dram.rank0.writeEnergy      246780720                       # Energy for write commands per rank (pJ) (Joule)
system.mem_ctrl.dram.rank0.refreshEnergy 582284121120.000122                       # Energy for refresh commands per rank (pJ) (Joule)
system.mem_ctrl.dram.rank0.actBackEnergy 2798985458850                       # Energy for active background per rank (pJ) (Joule)
system.mem_ctrl.dram.rank0.preBackEnergy 475485893280                       # Energy for precharge background per rank (pJ) (Joule)
system.mem_ctrl.dram.rank0.actPowerDownEnergy            0                       # Energy for active power-down per rank (pJ) (Joule)
system.mem_ctrl.dram.rank0.prePowerDownEnergy            0                       # Energy for precharge power-down per rank (pJ) (Joule)
system.mem_ctrl.dram.rank0.selfRefreshEnergy            0                       # Energy for self refresh per rank (pJ) (Joule)
system.mem_ctrl.dram.rank0.totalEnergy   4011802783875                       # Total energy per rank (pJ) (Joule)
system.mem_ctrl.dram.rank0.averagePower    543.872189                       # Core power per rank (mW) (Watt)
system.mem_ctrl.dram.rank0.totalIdleTime            0                       # Total Idle time Per DRAM Rank (Tick)
system.mem_ctrl.dram.rank0.pwrStateTime::IDLE 1209075425744                       # Time in different power states (Tick)
system.mem_ctrl.dram.rank0.pwrStateTime::REF 246313080000                       # Time in different power states (Tick)
system.mem_ctrl.dram.rank0.pwrStateTime::SREF            0                       # Time in different power states (Tick)
system.mem_ctrl.dram.rank0.pwrStateTime::PRE_PDN            0                       # Time in different power states (Tick)
system.mem_ctrl.dram.rank0.pwrStateTime::ACT 5920982013716                       # Time in different power states (Tick)
system.mem_ctrl.dram.rank0.pwrStateTime::ACT_PDN            0                       # Time in different power states (Tick)
system.mem_ctrl.dram.rank1.actEnergy      16610610240                       # Energy for activate commands per rank (pJ) (Joule)
system.mem_ctrl.dram.rank1.preEnergy       8828744925                       # Energy for precharge commands per rank (pJ) (Joule)
system.mem_ctrl.dram.rank1.readEnergy    149310858900                       # Energy for read commands per rank (pJ) (Joule)
system.mem_ctrl.dram.rank1.writeEnergy      278032860                       # Energy for write commands per rank (pJ) (Joule)
system.mem_ctrl.dram.rank1.refreshEnergy 582284121120.000122                       # Energy for refresh commands per rank (pJ) (Joule)
system.mem_ctrl.dram.rank1.actBackEnergy 2766191875710                       # Energy for active background per rank (pJ) (Joule)
system.mem_ctrl.dram.rank1.preBackEnergy 503101542240                       # Energy for precharge background per rank (pJ) (Joule)
system.mem_ctrl.dram.rank1.actPowerDownEnergy            0                       # Energy for active power-down per rank (pJ) (Joule)
system.mem_ctrl.dram.rank1.prePowerDownEnergy            0                       # Energy for precharge power-down per rank (pJ) (Joule)
system.mem_ctrl.dram.rank1.selfRefreshEnergy            0                       # Energy for self refresh per rank (pJ) (Joule)
system.mem_ctrl.dram.rank1.totalEnergy   4026605785995                       # Total energy per rank (pJ) (Joule)
system.mem_ctrl.dram.rank1.averagePower    545.879003                       # Core power per rank (mW) (Watt)
system.mem_ctrl.dram.rank1.totalIdleTime            0                       # Total Idle time Per DRAM Rank (Tick)
system.mem_ctrl.dram.rank1.pwrStateTime::IDLE 1275319153208                       # Time in different power states (Tick)
system.mem_ctrl.dram.rank1.pwrStateTime::REF 246313080000                       # Time in different power states (Tick)
[...]
system.mem_ctrl.dram.bwRead::cpu.data         8165428                       # Total read bandwidth from this memory ((Byte/Second))
system.mem_ctrl.dram.bwRead::total           40115656                       # Total read bandwidth from this memory ((Byte/Second))
system.mem_ctrl.dram.bwInstRead::cpu.inst     31950227                       # Instruction read bandwidth from this memory ((Byte/Second))
system.mem_ctrl.dram.bwInstRead::total       31950227                       # Instruction read bandwidth from this memory ((Byte/Second))
system.mem_ctrl.dram.bwWrite::cpu.data        4324140                       # Write bandwidth from this memory ((Byte/Second))
system.mem_ctrl.dram.bwWrite::total           4324140                       # Write bandwidth from this memory ((Byte/Second))
system.mem_ctrl.dram.bwTotal::cpu.inst       31950227                       # Total bandwidth to/from this memory ((Byte/Second))
system.mem_ctrl.dram.bwTotal::cpu.data       12489568                       # Total bandwidth to/from this memory ((Byte/Second))
system.mem_ctrl.dram.bwTotal::total          44439796                       # Total bandwidth to/from this memory ((Byte/Second))
system.mem_ctrl.dram.readBursts               3244653                       # Number of DRAM read bursts (Count)
system.mem_ctrl.dram.writeBursts                 8046                       # Number of DRAM write bursts (Count)
system.mem_ctrl.dram.perBankRdBursts::0          5742                       # Per bank write bursts (Count)
system.mem_ctrl.dram.perBankRdBursts::1          3950                       # Per bank write bursts (Count)
system.mem_ctrl.dram.perBankRdBursts::2        177034                       # Per bank write bursts (Count)
system.mem_ctrl.dram.perBankRdBursts::3          2569                       # Per bank write bursts (Count)
system.mem_ctrl.dram.perBankRdBursts::4       1305899                       # Per bank write bursts (Count)
system.mem_ctrl.dram.perBankRdBursts::5         68535                       # Per bank write bursts (Count)
system.mem_ctrl.dram.perBankRdBursts::6       1263561                       # Per bank write bursts (Count)
system.mem_ctrl.dram.perBankRdBursts::7        239527                       # Per bank write bursts (Count)
system.mem_ctrl.dram.perBankRdBursts::8         94080                       # Per bank write bursts (Count)
system.mem_ctrl.dram.perBankRdBursts::9         26677                       # Per bank write bursts (Count)
system.mem_ctrl.dram.perBankRdBursts::10        32332                       # Per bank write bursts (Count)
system.mem_ctrl.dram.perBankRdBursts::11         5207                       # Per bank write bursts (Count)
system.mem_ctrl.dram.perBankRdBursts::12         3957                       # Per bank write bursts (Count)
system.mem_ctrl.dram.perBankRdBursts::13         7746                       # Per bank write bursts (Count)
system.mem_ctrl.dram.perBankRdBursts::14         5888                       # Per bank write bursts (Count)
system.mem_ctrl.dram.perBankRdBursts::15         1949                       # Per bank write bursts (Count)
system.mem_ctrl.dram.perBankWrBursts::0           276                       # Per bank write bursts (Count)
system.mem_ctrl.dram.perBankWrBursts::1           264                       # Per bank write bursts (Count)
system.mem_ctrl.dram.perBankWrBursts::2           269                       # Per bank write bursts (Count)
system.mem_ctrl.dram.perBankWrBursts::3           268                       # Per bank write bursts (Count)
system.mem_ctrl.dram.perBankWrBursts::4           265                       # Per bank write bursts (Count)
system.mem_ctrl.dram.perBankWrBursts::5           593                       # Per bank write bursts (Count)
system.mem_ctrl.dram.perBankWrBursts::6           404                       # Per bank write bursts (Count)
system.mem_ctrl.dram.perBankWrBursts::7          2393                       # Per bank write bursts (Count)
system.mem_ctrl.dram.perBankWrBursts::8           416                       # Per bank write bursts (Count)
system.mem_ctrl.dram.perBankWrBursts::9           402                       # Per bank write bursts (Count)
system.mem_ctrl.dram.perBankWrBursts::10          620                       # Per bank write bursts (Count)
system.mem_ctrl.dram.perBankWrBursts::11          417                       # Per bank write bursts (Count)
system.mem_ctrl.dram.perBankWrBursts::12          676                       # Per bank write bursts (Count)
system.mem_ctrl.dram.perBankWrBursts::13          266                       # Per bank write bursts (Count)
system.mem_ctrl.dram.perBankWrBursts::14          260                       # Per bank write bursts (Count)
system.mem_ctrl.dram.perBankWrBursts::15          257                       # Per bank write bursts (Count)
system.mem_ctrl.dram.totQLat              20381025068                       # Total ticks spent queuing (Tick)
system.mem_ctrl.dram.totBusLat            16223265000                       # Total ticks spent in databus transfers (Tick)
system.mem_ctrl.dram.totMemAccLat         81218268818                       # Total ticks spent from burst creation until serviced by the DRAM (Tick)
system.mem_ctrl.dram.avgQLat                  6281.42                       # Average queueing delay per DRAM burst ((Tick/Count))
system.mem_ctrl.dram.avgBusLat                5000.00                       # Average bus latency per DRAM burst ((Tick/Count))
system.mem_ctrl.dram.avgMemAccLat            25031.42                       # Average memory access latency per DRAM burst ((Tick/Count))
system.mem_ctrl.dram.readRowHits              2683243                       # Number of row buffer hits during reads (Count)
system.mem_ctrl.dram.writeRowHits                7040                       # Number of row buffer hits during writes (Count)
system.mem_ctrl.dram.readRowHitRate             82.70                       # Row buffer hit rate for reads (Ratio)
system.mem_ctrl.dram.writeRowHitRate            87.50                       # Row buffer hit rate for writes (Ratio)
system.mem_ctrl.dram.bytesPerActivate::samples       562420                       # Bytes accessed per row activation (Byte)
system.mem_ctrl.dram.bytesPerActivate::mean   370.139554                       # Bytes accessed per row activation (Byte)
system.mem_ctrl.dram.bytesPerActivate::gmean   238.809248                       # Bytes accessed per row activation (Byte)
system.mem_ctrl.dram.bytesPerActivate::stdev   334.531496                       # Bytes accessed per row activation (Byte)
system.mem_ctrl.dram.bytesPerActivate::0-127       123226     21.91%     21.91% # Bytes accessed per row activation (Byte)
system.mem_ctrl.dram.bytesPerActivate::128-255       168628     29.98%     51.89% # Bytes accessed per row activation (Byte)
system.mem_ctrl.dram.bytesPerActivate::256-383        74220     13.20%     65.09% # Bytes accessed per row activation (Byte)
system.mem_ctrl.dram.bytesPerActivate::384-511        30755      5.47%     70.56% # Bytes accessed per row activation (Byte)
system.mem_ctrl.dram.bytesPerActivate::512-639        29703      5.28%     75.84% # Bytes accessed per row activation (Byte)
system.mem_ctrl.dram.bytesPerActivate::640-767        38450      6.84%     82.68% # Bytes accessed per row activation (Byte)
system.mem_ctrl.dram.bytesPerActivate::768-895         9000      1.60%     84.28% # Bytes accessed per row activation (Byte)
system.mem_ctrl.dram.bytesPerActivate::896-1023         5190      0.92%     85.20% # Bytes accessed per row activation (Byte)
system.mem_ctrl.dram.bytesPerActivate::1024-1151        83248     14.80%    100.00% # Bytes accessed per row activation (Byte)
system.mem_ctrl.dram.bytesPerActivate::total       562420                       # Bytes accessed per row activation (Byte)
system.mem_ctrl.dram.dramBytesRead          207657792                       # Total bytes read (Byte)
system.mem_ctrl.dram.dramBytesWritten          514944                       # Total bytes written (Byte)
system.mem_ctrl.dram.avgRdBW               316.949725                       # Average DRAM read bandwidth in MiBytes/s ((Byte/Second))
system.mem_ctrl.dram.avgWrBW                 0.785963                       # Average DRAM write bandwidth in MiBytes/s ((Byte/Second))
system.mem_ctrl.dram.peakBW                  12800.00                       # Theoretical peak bandwidth in MiByte/s ((Byte/Second))
system.mem_ctrl.dram.busUtil                     2.48                       # Data bus utilization in percentage (Ratio)
system.mem_ctrl.dram.busUtilRead                 2.48                       # Data bus utilization in percentage for reads (Ratio)
system.mem_ctrl.dram.busUtilWrite                0.01                       # Data bus utilization in percentage for writes (Ratio)
system.mem_ctrl.dram.pageHitRate                82.71                       # Row buffer hit rate, read and write combined (Ratio)
system.mem_ctrl.dram.power_state.pwrStateResidencyTicks::UNDEFINED 655175806862                       # Cumulative time (in ticks) in various power states (Tick)
system.mem_ctrl.dram.rank0.actEnergy       3242202600                       # Energy for activate commands per rank (pJ) (Joule)
system.mem_ctrl.dram.rank0.preEnergy       1723286730                       # Energy for precharge commands per rank (pJ) (Joule)
system.mem_ctrl.dram.rank0.readEnergy     21897073380                       # Energy for read commands per rank (pJ) (Joule)
system.mem_ctrl.dram.rank0.writeEnergy       24701040                       # Energy for write commands per rank (pJ) (Joule)
system.mem_ctrl.dram.rank0.refreshEnergy 51719497440.000008                       # Energy for refresh commands per rank (pJ) (Joule)
system.mem_ctrl.dram.rank0.actBackEnergy 296396401020                       # Energy for active background per rank (pJ) (Joule)
system.mem_ctrl.dram.rank0.preBackEnergy   1990540320                       # Energy for precharge background per rank (pJ) (Joule)
system.mem_ctrl.dram.rank0.actPowerDownEnergy            0                       # Energy for active power-down per rank (pJ) (Joule)
system.mem_ctrl.dram.rank0.prePowerDownEnergy            0                       # Energy for precharge power-down per rank (pJ) (Joule)
system.mem_ctrl.dram.rank0.selfRefreshEnergy            0                       # Energy for self refresh per rank (pJ) (Joule)
system.mem_ctrl.dram.rank0.totalEnergy   376993702530                       # Total energy per rank (pJ) (Joule)
system.mem_ctrl.dram.rank0.averagePower    575.408461                       # Core power per rank (mW) (Watt)
system.mem_ctrl.dram.rank0.totalIdleTime            0                       # Total Idle time Per DRAM Rank (Tick)
system.mem_ctrl.dram.rank0.pwrStateTime::IDLE   2809539037                       # Time in different power states (Tick)
system.mem_ctrl.dram.rank0.pwrStateTime::REF  21877960000                       # Time in different power states (Tick)
system.mem_ctrl.dram.rank0.pwrStateTime::SREF            0                       # Time in different power states (Tick)
system.mem_ctrl.dram.rank0.pwrStateTime::PRE_PDN            0                       # Time in different power states (Tick)
system.mem_ctrl.dram.rank0.pwrStateTime::ACT 630488307825                       # Time in different power states (Tick)
system.mem_ctrl.dram.rank0.pwrStateTime::ACT_PDN            0                       # Time in different power states (Tick)
system.mem_ctrl.dram.rank1.actEnergy        773447640                       # Energy for activate commands per rank (pJ) (Joule)
system.mem_ctrl.dram.rank1.preEnergy        411097170                       # Energy for precharge commands per rank (pJ) (Joule)
system.mem_ctrl.dram.rank1.readEnergy      1269749040                       # Energy for read commands per rank (pJ) (Joule)
system.mem_ctrl.dram.rank1.writeEnergy       17299080                       # Energy for write commands per rank (pJ) (Joule)
system.mem_ctrl.dram.rank1.refreshEnergy 51719497440.000008                       # Energy for refresh commands per rank (pJ) (Joule)
system.mem_ctrl.dram.rank1.actBackEnergy 160295477520                       # Energy for active background per rank (pJ) (Joule)
system.mem_ctrl.dram.rank1.preBackEnergy 116601844320                       # Energy for precharge background per rank (pJ) (Joule)
system.mem_ctrl.dram.rank1.actPowerDownEnergy            0                       # Energy for active power-down per rank (pJ) (Joule)
system.mem_ctrl.dram.rank1.prePowerDownEnergy            0                       # Energy for precharge power-down per rank (pJ) (Joule)
system.mem_ctrl.dram.rank1.selfRefreshEnergy            0                       # Energy for self refresh per rank (pJ) (Joule)
system.mem_ctrl.dram.rank1.totalEnergy   331088412210                       # Total energy per rank (pJ) (Joule)
system.mem_ctrl.dram.rank1.averagePower    505.342854                       # Core power per rank (mW) (Watt)
system.mem_ctrl.dram.rank1.totalIdleTime            0                       # Total Idle time Per DRAM Rank (Tick)
system.mem_ctrl.dram.rank1.pwrStateTime::IDLE 301443586633                       # Time in different power states (Tick)
system.mem_ctrl.dram.rank1.pwrStateTime::REF  21877960000                       # Time in different power states (Tick)
system.mem_ctrl.dram.rank1.pwrStateTime::SREF            0                       # Time in different power states (Tick)
system.mem_ctrl.dram.rank1.pwrStateTime::PRE_PDN            0                       # Time in different power states (Tick)
system.mem_ctrl.dram.rank1.pwrStateTime::ACT 331854260229                       # Time in different power states (Tick)
system.mem_ctrl.dram.rank1.pwrStateTime::ACT_PDN            0                       # Time in different power states (Tick)
system.mem_ctrl.power_state.pwrStateResidencyTicks::UNDEFINED 655175806862                       # Cumulative time (in ticks) in various power states (Tick)
system.membus.transDist::ReadReq              3348623                       # Transaction distribution (Count)
system.membus.transDist::ReadResp             3348624                       # Transaction distribution (Count)
system.membus.transDist::WriteReq              354658                       # Transaction distribution (Count)
system.membus.transDist::WriteResp             354658                       # Transaction distribution (Count)
system.membus.transDist::LockedRMWReadReq          614                       # Transaction distribution (Count)
system.membus.transDist::LockedRMWReadResp          614                       # Transaction distribution (Count)
system.membus.transDist::LockedRMWWriteReq          614                       # Transaction distribution (Count)
system.membus.transDist::LockedRMWWriteResp          614                       # Transaction distribution (Count)
system.membus.pktCount_system.cpu.icache_port::system.mem_ctrl.port      5233253                       # Packet count per connected requestor and responder (Count)
system.membus.pktCount_system.cpu.icache_port::total      5233253                       # Packet count per connected requestor and responder (Count)
system.membus.pktCount_system.cpu.dcache_port::system.mem_ctrl.port      2175766                       # Packet count per connected requestor and responder (Count)
system.membus.pktCount_system.cpu.dcache_port::total      2175766                       # Packet count per connected requestor and responder (Count)
system.membus.pktCount::total                 7409019                       # Packet count per connected requestor and responder (Count)
system.membus.pktSize_system.cpu.icache_port::system.mem_ctrl.port     20933016                       # Cumulative packet size per connected requestor and responder (Byte)
system.membus.pktSize_system.cpu.icache_port::total     20933016                       # Cumulative packet size per connected requestor and responder (Byte)
system.membus.pktSize_system.cpu.dcache_port::system.mem_ctrl.port      8182863                       # Cumulative packet size per connected requestor and responder (Byte)
system.membus.pktSize_system.cpu.dcache_port::total      8182863                       # Cumulative packet size per connected requestor and responder (Byte)
system.membus.pktSize::total                 29115879                       # Cumulative packet size per connected requestor and responder (Byte)
system.membus.snoops                                0                       # Total snoops (Count)
system.membus.snoopTraffic                          0                       # Total snoop traffic (Byte)
system.membus.snoopFanout::samples            3704509                       # Request fanout histogram (Count)
system.membus.snoopFanout::mean                     0                       # Request fanout histogram (Count)
system.membus.snoopFanout::stdev                    0                       # Request fanout histogram (Count)
system.membus.snoopFanout::underflows               0      0.00%      0.00% # Request fanout histogram (Count)
system.membus.snoopFanout::0                  3704509    100.00%    100.00% # Request fanout histogram (Count)
system.membus.snoopFanout::1                        0      0.00%    100.00% # Request fanout histogram (Count)
system.membus.snoopFanout::overflows                0      0.00%    100.00% # Request fanout histogram (Count)
system.membus.snoopFanout::min_value                0                       # Request fanout histogram (Count)
system.membus.snoopFanout::max_value                0                       # Request fanout histogram (Count)
system.membus.snoopFanout::total              3704509                       # Request fanout histogram (Count)
system.membus.power_state.pwrStateResidencyTicks::UNDEFINED 655175806862                       # Cumulative time (in ticks) in various power states (Tick)
system.membus.reqLayer2.occupancy         54129060073                       # Layer occupancy (ticks) (Tick)
system.membus.reqLayer2.utilization               0.1                       # Layer utilization (Ratio)
system.membus.respLayer1.occupancy        73299242339                       # Layer occupancy (ticks) (Tick)
system.membus.respLayer1.utilization              0.1                       # Layer utilization (Ratio)
system.membus.respLayer2.occupancy        26555365823                       # Layer occupancy (ticks) (Tick)
system.membus.respLayer2.utilization              0.0                       # Layer utilization (Ratio)
system.membus.snoop_filter.totRequests              0                       # Total number of requests made to the snoop filter. (Count)
system.membus.snoop_filter.hitSingleRequests            0                       # Number of requests hitting in the snoop filter with a single holder of the requested data. (Count)
system.membus.snoop_filter.hitMultiRequests            0                       # Number of requests hitting in the snoop filter with multiple (>1) holders of the requested data. (Count)
system.membus.snoop_filter.totSnoops                0                       # Total number of snoops made to the snoop filter. (Count)
system.membus.snoop_filter.hitSingleSnoops            0                       # Number of snoops hitting in the snoop filter with a single holder of the requested data. (Count)
system.membus.snoop_filter.hitMultiSnoops            0                       # Number of snoops hitting in the snoop filter with multiple (>1) holders of the requested data. (Count)
system.workload.inst.arm                            0                       # number of arm instructions executed (Count)
system.workload.inst.quiesce                        0                       # number of quiesce instructions executed (Count)

---------- End Simulation Statistics   ----------
