
---------- Begin Simulation Statistics ----------
simSeconds                                   3.040444                       # Number of seconds simulated (Second)
simTicks                                 3040443707007                       # Number of ticks simulated (Tick)
finalTick                                3040443707007                       # Number of ticks from beginning of simulation (restored from checkpoints and never reset) (Tick)
simFreq                                  1000000000000                       # The number of ticks per simulated second ((Tick/Second))
hostSeconds                                    140.25                       # Real time elapsed on the host (Second)
hostTickRate                              21679226058                       # The number of ticks simulated per host second (ticks/s) ((Tick/Second))
hostMemory                                    8648012                       # Number of bytes of host memory used (Byte)
simInsts                                    103268968                       # Number of instructions simulated (Count)
simOps                                      198850261                       # Number of ops (including micro ops) simulated (Count)
hostInstRate                                   736333                       # Simulator instruction rate (inst/s) ((Count/Second))
hostOpRate                                    1417851                       # Simulator op (including micro ops) rate (op/s) ((Count/Second))
system.clk_domain.clock                         13333                       # Clock period in ticks (Tick)
system.clk_domain.voltage_domain.voltage            1                       # Voltage in Volts (Volt)
system.cpu.numCycles                        228038979                       # Number of cpu cycles simulated (Cycle)
system.cpu.cpi                               2.208161                       # CPI: cycles per instruction (core level) ((Cycle/Count))
system.cpu.ipc                               0.452866                       # IPC: instructions per cycle (core level) ((Count/Cycle))
system.cpu.numWorkItemsStarted                      0                       # Number of work items this cpu started (Count)
system.cpu.numWorkItemsCompleted                    0                       # Number of work items this cpu completed (Count)
system.cpu.commitStats0.numInsts            103271009                       # Number of instructions committed (thread level) (Count)
system.cpu.commitStats0.numOps              198852484                       # Number of ops (including micro ops) committed (thread level) (Count)
system.cpu.commitStats0.numInstsNotNOP              0                       # Number of instructions committed excluding NOPs or prefetches (Count)
system.cpu.commitStats0.numOpsNotNOP                0                       # Number of Ops (including micro ops) Simulated (Count)
system.cpu.commitStats0.cpi                  2.208161                       # CPI: cycles per instruction (thread level) ((Cycle/Count))
system.cpu.commitStats0.ipc                  0.452866                       # IPC: instructions per cycle (thread level) ((Count/Cycle))
system.cpu.commitStats0.numMemRefs                  0                       # Number of memory references committed (Count)
system.cpu.commitStats0.numFpInsts            8271570                       # Number of float instructions (Count)
system.cpu.commitStats0.numIntInsts         191042305                       # Number of integer instructions (Count)
system.cpu.commitStats0.numLoadInsts         31305600                       # Number of load instructions (Count)
system.cpu.commitStats0.numStoreInsts        14612403                       # Number of store instructions (Count)
system.cpu.commitStats0.numVecInsts                 0                       # Number of vector instructions (Count)
system.cpu.commitStats0.committedInstType::No_OpClass      1841550      0.93%      0.93% # Class of committed instruction. (Count)
system.cpu.commitStats0.committedInstType::IntAlu    145428738     73.13%     74.06% # Class of committed instruction. (Count)
system.cpu.commitStats0.committedInstType::IntMult       130548      0.07%     74.13% # Class of committed instruction. (Count)
system.cpu.commitStats0.committedInstType::IntDiv       699377      0.35%     74.48% # Class of committed instruction. (Count)
system.cpu.commitStats0.committedInstType::FloatAdd      1866842      0.94%     75.42% # Class of committed instruction. (Count)
system.cpu.commitStats0.committedInstType::FloatCmp            0      0.00%     75.42% # Class of committed instruction. (Count)
system.cpu.commitStats0.committedInstType::FloatCvt         1696      0.00%     75.42% # Class of committed instruction. (Count)
system.cpu.commitStats0.committedInstType::FloatMult            0      0.00%     75.42% # Class of committed instruction. (Count)
system.cpu.commitStats0.committedInstType::FloatMultAcc            0      0.00%     75.42% # Class of committed instruction. (Count)
system.cpu.commitStats0.committedInstType::FloatDiv            0      0.00%     75.42% # Class of committed instruction. (Count)
system.cpu.commitStats0.committedInstType::FloatMisc            0      0.00%     75.42% # Class of committed instruction. (Count)
system.cpu.commitStats0.committedInstType::FloatSqrt            0      0.00%     75.42% # Class of committed instruction. (Count)
system.cpu.commitStats0.committedInstType::SimdAdd         7086      0.00%     75.42% # Class of committed instruction. (Count)
system.cpu.commitStats0.committedInstType::SimdAddAcc            0      0.00%     75.42% # Class of committed instruction. (Count)
system.cpu.commitStats0.committedInstType::SimdAlu       608054      0.31%     75.73% # Class of committed instruction. (Count)
system.cpu.commitStats0.committedInstType::SimdCmp            6      0.00%     75.73% # Class of committed instruction. (Count)
system.cpu.commitStats0.committedInstType::SimdCvt        47032      0.02%     75.75% # Class of committed instruction. (Count)
system.cpu.commitStats0.committedInstType::SimdMisc       300846      0.15%     75.90% # Class of committed instruction. (Count)
system.cpu.commitStats0.committedInstType::SimdMult            0      0.00%     75.90% # Class of committed instruction. (Count)
system.cpu.commitStats0.committedInstType::SimdMultAcc            0      0.00%     75.90% # Class of committed instruction. (Count)
system.cpu.commitStats0.committedInstType::SimdMatMultAcc            0      0.00%     75.90% # Class of committed instruction. (Count)
system.cpu.commitStats0.committedInstType::SimdShift         2286      0.00%     75.90% # Class of committed instruction. (Count)
system.cpu.commitStats0.committedInstType::SimdShiftAcc            0      0.00%     75.90% # Class of committed instruction. (Count)
system.cpu.commitStats0.committedInstType::SimdDiv            0      0.00%     75.90% # Class of committed instruction. (Count)
system.cpu.commitStats0.committedInstType::SimdSqrt            0      0.00%     75.90% # Class of committed instruction. (Count)
system.cpu.commitStats0.committedInstType::SimdFloatAdd        16398      0.01%     75.91% # Class of committed instruction. (Count)
system.cpu.commitStats0.committedInstType::SimdFloatAlu            0      0.00%     75.91% # Class of committed instruction. (Count)
system.cpu.commitStats0.committedInstType::SimdFloatCmp        10920      0.01%     75.92% # Class of committed instruction. (Count)
system.cpu.commitStats0.committedInstType::SimdFloatCvt      1748576      0.88%     76.80% # Class of committed instruction. (Count)
system.cpu.commitStats0.committedInstType::SimdFloatDiv            6      0.00%     76.80% # Class of committed instruction. (Count)
system.cpu.commitStats0.committedInstType::SimdFloatMisc            0      0.00%     76.80% # Class of committed instruction. (Count)
system.cpu.commitStats0.committedInstType::SimdFloatMult       224512      0.11%     76.91% # Class of committed instruction. (Count)
system.cpu.commitStats0.committedInstType::SimdFloatMultAcc            0      0.00%     76.91% # Class of committed instruction. (Count)
system.cpu.commitStats0.committedInstType::SimdFloatMatMultAcc            0      0.00%     76.91% # Class of committed instruction. (Count)
system.cpu.commitStats0.committedInstType::SimdFloatSqrt            8      0.00%     76.91% # Class of committed instruction. (Count)
system.cpu.commitStats0.committedInstType::SimdReduceAdd            0      0.00%     76.91% # Class of committed instruction. (Count)
system.cpu.commitStats0.committedInstType::SimdReduceAlu            0      0.00%     76.91% # Class of committed instruction. (Count)
system.cpu.commitStats0.committedInstType::SimdReduceCmp            0      0.00%     76.91% # Class of committed instruction. (Count)
system.cpu.commitStats0.committedInstType::SimdFloatReduceAdd            0      0.00%     76.91% # Class of committed instruction. (Count)
system.cpu.commitStats0.committedInstType::SimdFloatReduceCmp            0      0.00%     76.91% # Class of committed instruction. (Count)
system.cpu.commitStats0.committedInstType::SimdAes            0      0.00%     76.91% # Class of committed instruction. (Count)
system.cpu.commitStats0.committedInstType::SimdAesMix            0      0.00%     76.91% # Class of committed instruction. (Count)
system.cpu.commitStats0.committedInstType::SimdSha1Hash            0      0.00%     76.91% # Class of committed instruction. (Count)
system.cpu.commitStats0.committedInstType::SimdSha1Hash2            0      0.00%     76.91% # Class of committed instruction. (Count)
system.cpu.commitStats0.committedInstType::SimdSha256Hash            0      0.00%     76.91% # Class of committed instruction. (Count)
system.cpu.commitStats0.committedInstType::SimdSha256Hash2            0      0.00%     76.91% # Class of committed instruction. (Count)
system.cpu.commitStats0.committedInstType::SimdShaSigma2            0      0.00%     76.91% # Class of committed instruction. (Count)
system.cpu.commitStats0.committedInstType::SimdShaSigma3            0      0.00%     76.91% # Class of committed instruction. (Count)
system.cpu.commitStats0.committedInstType::SimdPredAlu            0      0.00%     76.91% # Class of committed instruction. (Count)
system.cpu.commitStats0.committedInstType::Matrix            0      0.00%     76.91% # Class of committed instruction. (Count)
system.cpu.commitStats0.committedInstType::MatrixMov            0      0.00%     76.91% # Class of committed instruction. (Count)
system.cpu.commitStats0.committedInstType::MatrixOP            0      0.00%     76.91% # Class of committed instruction. (Count)
system.cpu.commitStats0.committedInstType::MemRead     28827330     14.50%     91.41% # Class of committed instruction. (Count)
system.cpu.commitStats0.committedInstType::MemWrite     13880123      6.98%     98.39% # Class of committed instruction. (Count)
system.cpu.commitStats0.committedInstType::FloatMemRead      2478270      1.25%     99.63% # Class of committed instruction. (Count)
system.cpu.commitStats0.committedInstType::FloatMemWrite       732280      0.37%    100.00% # Class of committed instruction. (Count)
system.cpu.commitStats0.committedInstType::IprAccess            0      0.00%    100.00% # Class of committed instruction. (Count)
system.cpu.commitStats0.committedInstType::InstPrefetch            0      0.00%    100.00% # Class of committed instruction. (Count)
system.cpu.commitStats0.committedInstType::SimdUnitStrideLoad            0      0.00%    100.00% # Class of committed instruction. (Count)
system.cpu.commitStats0.committedInstType::SimdUnitStrideStore            0      0.00%    100.00% # Class of committed instruction. (Count)
system.cpu.commitStats0.committedInstType::SimdUnitStrideMaskLoad            0      0.00%    100.00% # Class of committed instruction. (Count)
system.cpu.commitStats0.committedInstType::SimdUnitStrideMaskStore            0      0.00%    100.00% # Class of committed instruction. (Count)
system.cpu.commitStats0.committedInstType::SimdStridedLoad            0      0.00%    100.00% # Class of committed instruction. (Count)
system.cpu.commitStats0.committedInstType::SimdStridedStore            0      0.00%    100.00% # Class of committed instruction. (Count)
system.cpu.commitStats0.committedInstType::SimdIndexedLoad            0      0.00%    100.00% # Class of committed instruction. (Count)
system.cpu.commitStats0.committedInstType::SimdIndexedStore            0      0.00%    100.00% # Class of committed instruction. (Count)
system.cpu.commitStats0.committedInstType::SimdWholeRegisterLoad            0      0.00%    100.00% # Class of committed instruction. (Count)
system.cpu.commitStats0.committedInstType::SimdWholeRegisterStore            0      0.00%    100.00% # Class of committed instruction. (Count)
system.cpu.commitStats0.committedInstType::SimdUnitStrideFaultOnlyFirstLoad            0      0.00%    100.00% # Class of committed instruction. (Count)
system.cpu.commitStats0.committedInstType::SimdUnitStrideSegmentedLoad            0      0.00%    100.00% # Class of committed instruction. (Count)
system.cpu.commitStats0.committedInstType::SimdUnitStrideSegmentedStore            0      0.00%    100.00% # Class of committed instruction. (Count)
system.cpu.commitStats0.committedInstType::SimdExt            0      0.00%    100.00% # Class of committed instruction. (Count)
system.cpu.commitStats0.committedInstType::SimdFloatExt            0      0.00%    100.00% # Class of committed instruction. (Count)
system.cpu.commitStats0.committedInstType::SimdConfig            0      0.00%    100.00% # Class of committed instruction. (Count)
system.cpu.commitStats0.committedInstType::total    198852484                       # Class of committed instruction. (Count)
system.cpu.commitStats0.committedControl::IsControl     21621451                       # Class of control type instructions committed (Count)
system.cpu.commitStats0.committedControl::IsDirectControl     19486134                       # Class of control type instructions committed (Count)
system.cpu.commitStats0.committedControl::IsIndirectControl      2134957                       # Class of control type instructions committed (Count)
system.cpu.commitStats0.committedControl::IsCondControl     16064127                       # Class of control type instructions committed (Count)
system.cpu.commitStats0.committedControl::IsUncondControl      5556964                       # Class of control type instructions committed (Count)
system.cpu.commitStats0.committedControl::IsCall      2034742                       # Class of control type instructions committed (Count)
system.cpu.commitStats0.committedControl::IsReturn      2034737                       # Class of control type instructions committed (Count)
system.cpu.exec_context.thread_0.numMatAluAccesses            0                       # Number of matrix alu accesses (Count)
system.cpu.exec_context.thread_0.numCallsReturns      4069479                       # Number of times a function call or return occured (Count)
system.cpu.exec_context.thread_0.numMatInsts            0                       # Number of matrix instructions (Count)
system.cpu.exec_context.thread_0.numIdleCycles            0                       # Number of idle cycles (Cycle)
system.cpu.exec_context.thread_0.numBusyCycles    228038979                       # Number of busy cycles (Cycle)
system.cpu.exec_context.thread_0.notIdleFraction            1                       # Percentage of non-idle cycles (Ratio)
system.cpu.exec_context.thread_0.idleFraction            0                       # Percentage of idle cycles (Ratio)
system.cpu.executeStats0.numInsts                   0                       # Number of executed instructions (Count)
system.cpu.executeStats0.numNop                     0                       # Number of nop insts executed (Count)
system.cpu.executeStats0.numBranches                0                       # Number of branches executed (Count)
system.cpu.executeStats0.numLoadInsts               0                       # Number of load instructions executed (Count)
system.cpu.executeStats0.numStoreInsts       45918003                       # Number of stores executed (Count)
system.cpu.executeStats0.instRate                   0                       # Inst execution rate ((Count/Cycle))
system.cpu.executeStats0.numFpAluAccesses      8271570                       # Number of float alu accesses (Count)
system.cpu.executeStats0.numFpRegReads        7131298                       # Number of times the floating registers were read (Count)
system.cpu.executeStats0.numFpRegWrites       5980278                       # Number of times the floating registers were written (Count)
system.cpu.executeStats0.numIntAluAccesses    191042305                       # Number of integer alu accesses (Count)
system.cpu.executeStats0.numIntRegReads     224422620                       # Number of times the integer registers were read (Count)
system.cpu.executeStats0.numIntRegWrites    139846915                       # Number of times the integer registers were written (Count)
system.cpu.executeStats0.numMemRefs          45918003                       # Number of memory refs (Count)
system.cpu.executeStats0.numMiscRegReads     87531044                       # Number of times the Misc registers were read (Count)
system.cpu.executeStats0.numMiscRegWrites          954                       # Number of times the Misc registers were written (Count)
system.cpu.executeStats0.numVecAluAccesses            0                       # Number of vector alu accesses (Count)
system.cpu.executeStats0.numDiscardedOps            0                       # Number of ops (including micro ops) which were discarded before commit (Count)
system.cpu.fetchStats0.numInsts             103271009                       # Number of instructions fetched (thread level) (Count)
system.cpu.fetchStats0.numOps               198852484                       # Number of ops (including micro ops) fetched (thread level) (Count)
system.cpu.fetchStats0.fetchRate             0.452866                       # Number of inst fetches per cycle ((Count/Cycle))
system.cpu.fetchStats0.numBranches           21621451                       # Number of branches fetched (Count)
system.cpu.fetchStats0.branchRate            0.094815                       # Number of branch fetches per cycle (Ratio)
system.cpu.fetchStats0.numFetchSuspends             0                       # Number of times Execute suspended instruction fetching (Count)
system.cpu.interrupts.clk_domain.clock         213328                       # Clock period in ticks (Tick)
system.cpu.l1d.demandHits::cpu.data          42905576                       # number of demand (read+write) hits (Count)
system.cpu.l1d.demandHits::total             42905576                       # number of demand (read+write) hits (Count)
system.cpu.l1d.overallHits::cpu.data         42905576                       # number of overall hits (Count)
system.cpu.l1d.overallHits::total            42905576                       # number of overall hits (Count)
system.cpu.l1d.demandMisses::cpu.data         2019523                       # number of demand (read+write) misses (Count)
system.cpu.l1d.demandMisses::total            2019523                       # number of demand (read+write) misses (Count)
system.cpu.l1d.overallMisses::cpu.data        2019523                       # number of overall misses (Count)
system.cpu.l1d.overallMisses::total           2019523                       # number of overall misses (Count)
system.cpu.l1d.demandMissLatency::cpu.data 419802558007                       # number of demand (read+write) miss ticks (Tick)
system.cpu.l1d.demandMissLatency::total  419802558007                       # number of demand (read+write) miss ticks (Tick)
system.cpu.l1d.overallMissLatency::cpu.data 419802558007                       # number of overall miss ticks (Tick)
system.cpu.l1d.overallMissLatency::total 419802558007                       # number of overall miss ticks (Tick)
system.cpu.l1d.demandAccesses::cpu.data      44925099                       # number of demand (read+write) accesses (Count)
system.cpu.l1d.demandAccesses::total         44925099                       # number of demand (read+write) accesses (Count)
system.cpu.l1d.overallAccesses::cpu.data     44925099                       # number of overall (read+write) accesses (Count)
system.cpu.l1d.overallAccesses::total        44925099                       # number of overall (read+write) accesses (Count)
system.cpu.l1d.demandMissRate::cpu.data      0.044953                       # miss rate for demand accesses (Ratio)
system.cpu.l1d.demandMissRate::total         0.044953                       # miss rate for demand accesses (Ratio)
system.cpu.l1d.overallMissRate::cpu.data     0.044953                       # miss rate for overall accesses (Ratio)
system.cpu.l1d.overallMissRate::total        0.044953                       # miss rate for overall accesses (Ratio)
system.cpu.l1d.demandAvgMissLatency::cpu.data 207872.135156                       # average overall miss latency in ticks ((Tick/Count))
system.cpu.l1d.demandAvgMissLatency::total 207872.135156                       # average overall miss latency in ticks ((Tick/Count))
system.cpu.l1d.overallAvgMissLatency::cpu.data 207872.135156                       # average overall miss latency ((Tick/Count))
system.cpu.l1d.overallAvgMissLatency::total 207872.135156                       # average overall miss latency ((Tick/Count))
system.cpu.l1d.blockedCycles::no_mshrs              0                       # number of cycles access was blocked (Cycle)
system.cpu.l1d.blockedCycles::no_targets            0                       # number of cycles access was blocked (Cycle)
system.cpu.l1d.blockedCauses::no_mshrs              0                       # number of times access was blocked (Count)
system.cpu.l1d.blockedCauses::no_targets            0                       # number of times access was blocked (Count)
system.cpu.l1d.avgBlocked::no_mshrs               nan                       # average number of cycles each access was blocked ((Cycle/Count))
system.cpu.l1d.avgBlocked::no_targets             nan                       # average number of cycles each access was blocked ((Cycle/Count))
system.cpu.l1d.writebacks::writebacks          768350                       # number of writebacks (Count)
system.cpu.l1d.writebacks::total               768350                       # number of writebacks (Count)
system.cpu.l1d.demandMshrMisses::cpu.data      2019523                       # number of demand (read+write) MSHR misses (Count)
system.cpu.l1d.demandMshrMisses::total        2019523                       # number of demand (read+write) MSHR misses (Count)
system.cpu.l1d.overallMshrMisses::cpu.data      2019523                       # number of overall MSHR misses (Count)
system.cpu.l1d.overallMshrMisses::total       2019523                       # number of overall MSHR misses (Count)
system.cpu.l1d.demandMshrMissLatency::cpu.data 392876257848                       # number of demand (read+write) MSHR miss ticks (Tick)
system.cpu.l1d.demandMshrMissLatency::total 392876257848                       # number of demand (read+write) MSHR miss ticks (Tick)
system.cpu.l1d.overallMshrMissLatency::cpu.data 392876257848                       # number of overall MSHR miss ticks (Tick)
system.cpu.l1d.overallMshrMissLatency::total 392876257848                       # number of overall MSHR miss ticks (Tick)
system.cpu.l1d.demandMshrMissRate::cpu.data     0.044953                       # mshr miss ratio for demand accesses (Ratio)
system.cpu.l1d.demandMshrMissRate::total     0.044953                       # mshr miss ratio for demand accesses (Ratio)
system.cpu.l1d.overallMshrMissRate::cpu.data     0.044953                       # mshr miss ratio for overall accesses (Ratio)
system.cpu.l1d.overallMshrMissRate::total     0.044953                       # mshr miss ratio for overall accesses (Ratio)
system.cpu.l1d.demandAvgMshrMissLatency::cpu.data 194539.135156                       # average overall mshr miss latency ((Tick/Count))
system.cpu.l1d.demandAvgMshrMissLatency::total 194539.135156                       # average overall mshr miss latency ((Tick/Count))
system.cpu.l1d.overallAvgMshrMissLatency::cpu.data 194539.135156                       # average overall mshr miss latency ((Tick/Count))
system.cpu.l1d.overallAvgMshrMissLatency::total 194539.135156                       # average overall mshr miss latency ((Tick/Count))
system.cpu.l1d.replacements                   2019621                       # number of replacements (Count)
system.cpu.l1d.LockedRMWReadReq.hits::cpu.data       495311                       # number of LockedRMWReadReq hits (Count)
system.cpu.l1d.LockedRMWReadReq.hits::total       495311                       # number of LockedRMWReadReq hits (Count)
system.cpu.l1d.LockedRMWReadReq.misses::cpu.data          162                       # number of LockedRMWReadReq misses (Count)
system.cpu.l1d.LockedRMWReadReq.misses::total          162                       # number of LockedRMWReadReq misses (Count)
system.cpu.l1d.LockedRMWReadReq.missLatency::cpu.data     33745823                       # number of LockedRMWReadReq miss ticks (Tick)
system.cpu.l1d.LockedRMWReadReq.missLatency::total     33745823                       # number of LockedRMWReadReq miss ticks (Tick)
system.cpu.l1d.LockedRMWReadReq.accesses::cpu.data       495473                       # number of LockedRMWReadReq accesses(hits+misses) (Count)
system.cpu.l1d.LockedRMWReadReq.accesses::total       495473                       # number of LockedRMWReadReq accesses(hits+misses) (Count)
system.cpu.l1d.LockedRMWReadReq.missRate::cpu.data     0.000327                       # miss rate for LockedRMWReadReq accesses (Ratio)
system.cpu.l1d.LockedRMWReadReq.missRate::total     0.000327                       # miss rate for LockedRMWReadReq accesses (Ratio)
system.cpu.l1d.LockedRMWReadReq.avgMissLatency::cpu.data 208307.549383                       # average LockedRMWReadReq miss latency ((Tick/Count))
system.cpu.l1d.LockedRMWReadReq.avgMissLatency::total 208307.549383                       # average LockedRMWReadReq miss latency ((Tick/Count))
system.cpu.l1d.LockedRMWReadReq.mshrMisses::cpu.data          162                       # number of LockedRMWReadReq MSHR misses (Count)
system.cpu.l1d.LockedRMWReadReq.mshrMisses::total          162                       # number of LockedRMWReadReq MSHR misses (Count)
system.cpu.l1d.LockedRMWReadReq.mshrMissLatency::cpu.data   7413747985                       # number of LockedRMWReadReq MSHR miss ticks (Tick)
system.cpu.l1d.LockedRMWReadReq.mshrMissLatency::total   7413747985                       # number of LockedRMWReadReq MSHR miss ticks (Tick)
system.cpu.l1d.LockedRMWReadReq.mshrMissRate::cpu.data     0.000327                       # mshr miss rate for LockedRMWReadReq accesses (Ratio)
system.cpu.l1d.LockedRMWReadReq.mshrMissRate::total     0.000327                       # mshr miss rate for LockedRMWReadReq accesses (Ratio)
system.cpu.l1d.LockedRMWReadReq.avgMshrMissLatency::cpu.data 45763876.450617                       # average LockedRMWReadReq mshr miss latency ((Tick/Count))
system.cpu.l1d.LockedRMWReadReq.avgMshrMissLatency::total 45763876.450617                       # average LockedRMWReadReq mshr miss latency ((Tick/Count))
system.cpu.l1d.LockedRMWWriteReq.hits::cpu.data       495473                       # number of LockedRMWWriteReq hits (Count)
system.cpu.l1d.LockedRMWWriteReq.hits::total       495473                       # number of LockedRMWWriteReq hits (Count)
system.cpu.l1d.LockedRMWWriteReq.accesses::cpu.data       495473                       # number of LockedRMWWriteReq accesses(hits+misses) (Count)
system.cpu.l1d.LockedRMWWriteReq.accesses::total       495473                       # number of LockedRMWWriteReq accesses(hits+misses) (Count)
system.cpu.l1d.ReadReq.hits::cpu.data        29163133                       # number of ReadReq hits (Count)
system.cpu.l1d.ReadReq.hits::total           29163133                       # number of ReadReq hits (Count)
system.cpu.l1d.ReadReq.misses::cpu.data       1646789                       # number of ReadReq misses (Count)
system.cpu.l1d.ReadReq.misses::total          1646789                       # number of ReadReq misses (Count)
system.cpu.l1d.ReadReq.missLatency::cpu.data 345787035108                       # number of ReadReq miss ticks (Tick)
system.cpu.l1d.ReadReq.missLatency::total 345787035108                       # number of ReadReq miss ticks (Tick)
system.cpu.l1d.ReadReq.accesses::cpu.data     30809922                       # number of ReadReq accesses(hits+misses) (Count)
system.cpu.l1d.ReadReq.accesses::total       30809922                       # number of ReadReq accesses(hits+misses) (Count)
system.cpu.l1d.ReadReq.missRate::cpu.data     0.053450                       # miss rate for ReadReq accesses (Ratio)
system.cpu.l1d.ReadReq.missRate::total       0.053450                       # miss rate for ReadReq accesses (Ratio)
system.cpu.l1d.ReadReq.avgMissLatency::cpu.data 209976.527113                       # average ReadReq miss latency ((Tick/Count))
system.cpu.l1d.ReadReq.avgMissLatency::total 209976.527113                       # average ReadReq miss latency ((Tick/Count))
system.cpu.l1d.ReadReq.mshrMisses::cpu.data      1646789                       # number of ReadReq MSHR misses (Count)
system.cpu.l1d.ReadReq.mshrMisses::total      1646789                       # number of ReadReq MSHR misses (Count)
system.cpu.l1d.ReadReq.mshrMissLatency::cpu.data 323830397371                       # number of ReadReq MSHR miss ticks (Tick)
system.cpu.l1d.ReadReq.mshrMissLatency::total 323830397371                       # number of ReadReq MSHR miss ticks (Tick)
system.cpu.l1d.ReadReq.mshrMissRate::cpu.data     0.053450                       # mshr miss rate for ReadReq accesses (Ratio)
system.cpu.l1d.ReadReq.mshrMissRate::total     0.053450                       # mshr miss rate for ReadReq accesses (Ratio)
system.cpu.l1d.ReadReq.avgMshrMissLatency::cpu.data 196643.527113                       # average ReadReq mshr miss latency ((Tick/Count))
system.cpu.l1d.ReadReq.avgMshrMissLatency::total 196643.527113                       # average ReadReq mshr miss latency ((Tick/Count))
system.cpu.l1d.WriteReq.hits::cpu.data       13742443                       # number of WriteReq hits (Count)
system.cpu.l1d.WriteReq.hits::total          13742443                       # number of WriteReq hits (Count)
system.cpu.l1d.WriteReq.misses::cpu.data       372734                       # number of WriteReq misses (Count)
system.cpu.l1d.WriteReq.misses::total          372734                       # number of WriteReq misses (Count)
system.cpu.l1d.WriteReq.missLatency::cpu.data  74015522899                       # number of WriteReq miss ticks (Tick)
system.cpu.l1d.WriteReq.missLatency::total  74015522899                       # number of WriteReq miss ticks (Tick)
system.cpu.l1d.WriteReq.accesses::cpu.data     14115177                       # number of WriteReq accesses(hits+misses) (Count)
system.cpu.l1d.WriteReq.accesses::total      14115177                       # number of WriteReq accesses(hits+misses) (Count)
system.cpu.l1d.WriteReq.missRate::cpu.data     0.026407                       # miss rate for WriteReq accesses (Ratio)
system.cpu.l1d.WriteReq.missRate::total      0.026407                       # miss rate for WriteReq accesses (Ratio)
system.cpu.l1d.WriteReq.avgMissLatency::cpu.data 198574.648138                       # average WriteReq miss latency ((Tick/Count))
system.cpu.l1d.WriteReq.avgMissLatency::total 198574.648138                       # average WriteReq miss latency ((Tick/Count))
system.cpu.l1d.WriteReq.mshrMisses::cpu.data       372734                       # number of WriteReq MSHR misses (Count)
system.cpu.l1d.WriteReq.mshrMisses::total       372734                       # number of WriteReq MSHR misses (Count)
system.cpu.l1d.WriteReq.mshrMissLatency::cpu.data  69045860477                       # number of WriteReq MSHR miss ticks (Tick)
system.cpu.l1d.WriteReq.mshrMissLatency::total  69045860477                       # number of WriteReq MSHR miss ticks (Tick)
system.cpu.l1d.WriteReq.mshrMissRate::cpu.data     0.026407                       # mshr miss rate for WriteReq accesses (Ratio)
system.cpu.l1d.WriteReq.mshrMissRate::total     0.026407                       # mshr miss rate for WriteReq accesses (Ratio)
system.cpu.l1d.WriteReq.avgMshrMissLatency::cpu.data 185241.648138                       # average WriteReq mshr miss latency ((Tick/Count))
system.cpu.l1d.WriteReq.avgMshrMissLatency::total 185241.648138                       # average WriteReq mshr miss latency ((Tick/Count))
system.cpu.l1d.power_state.pwrStateResidencyTicks::UNDEFINED 3040443707007                       # Cumulative time (in ticks) in various power states (Tick)
system.cpu.l1d.tags.tagsInUse               63.999490                       # Average ticks per tags in use ((Tick/Count))
system.cpu.l1d.tags.totalRefs                45885991                       # Total number of references to valid blocks. (Count)
system.cpu.l1d.tags.sampledRefs               2019621                       # Sample count of references to valid blocks. (Count)
system.cpu.l1d.tags.avgRefs                 22.720100                       # Average number of references to valid blocks. ((Count/Count))
system.cpu.l1d.tags.warmupTick                 479988                       # The tick when the warmup percentage was hit. (Tick)
system.cpu.l1d.tags.occupancies::cpu.data    63.999490                       # Average occupied blocks per tick, per requestor ((Count/Tick))
system.cpu.l1d.tags.avgOccs::cpu.data        0.999992                       # Average percentage of cache occupancy ((Ratio/Tick))
system.cpu.l1d.tags.avgOccs::total           0.999992                       # Average percentage of cache occupancy ((Ratio/Tick))
system.cpu.l1d.tags.occupanciesTaskId::1024           64                       # Occupied blocks per task id (Count)
system.cpu.l1d.tags.ageTaskId_1024::0               9                       # Occupied blocks per task id, per block age (Count)
system.cpu.l1d.tags.ageTaskId_1024::1              26                       # Occupied blocks per task id, per block age (Count)
system.cpu.l1d.tags.ageTaskId_1024::2              26                       # Occupied blocks per task id, per block age (Count)
system.cpu.l1d.tags.ageTaskId_1024::3               2                       # Occupied blocks per task id, per block age (Count)
system.cpu.l1d.tags.ageTaskId_1024::4               1                       # Occupied blocks per task id, per block age (Count)
system.cpu.l1d.tags.ratioOccsTaskId::1024            1                       # Ratio of occupied blocks and all blocks, per task id (Ratio)
system.cpu.l1d.tags.tagAccesses              93851775                       # Number of tag accesses (Count)
system.cpu.l1d.tags.dataAccesses             93851775                       # Number of data accesses (Count)
system.cpu.l1d.tags.power_state.pwrStateResidencyTicks::UNDEFINED 3040443707007                       # Cumulative time (in ticks) in various power states (Tick)
system.cpu.l1i.demandHits::cpu.inst         134567595                       # number of demand (read+write) hits (Count)
system.cpu.l1i.demandHits::total            134567595                       # number of demand (read+write) hits (Count)
system.cpu.l1i.overallHits::cpu.inst        134567595                       # number of overall hits (Count)
system.cpu.l1i.overallHits::total           134567595                       # number of overall hits (Count)
system.cpu.l1i.demandMisses::cpu.inst          921745                       # number of demand (read+write) misses (Count)
system.cpu.l1i.demandMisses::total             921745                       # number of demand (read+write) misses (Count)
system.cpu.l1i.overallMisses::cpu.inst         921745                       # number of overall misses (Count)
system.cpu.l1i.overallMisses::total            921745                       # number of overall misses (Count)
system.cpu.l1i.demandMissLatency::cpu.inst 194385100251                       # number of demand (read+write) miss ticks (Tick)
system.cpu.l1i.demandMissLatency::total  194385100251                       # number of demand (read+write) miss ticks (Tick)
system.cpu.l1i.overallMissLatency::cpu.inst 194385100251                       # number of overall miss ticks (Tick)
system.cpu.l1i.overallMissLatency::total 194385100251                       # number of overall miss ticks (Tick)
system.cpu.l1i.demandAccesses::cpu.inst     135489340                       # number of demand (read+write) accesses (Count)
system.cpu.l1i.demandAccesses::total        135489340                       # number of demand (read+write) accesses (Count)
system.cpu.l1i.overallAccesses::cpu.inst    135489340                       # number of overall (read+write) accesses (Count)
system.cpu.l1i.overallAccesses::total       135489340                       # number of overall (read+write) accesses (Count)
system.cpu.l1i.demandMissRate::cpu.inst      0.006803                       # miss rate for demand accesses (Ratio)
system.cpu.l1i.demandMissRate::total         0.006803                       # miss rate for demand accesses (Ratio)
system.cpu.l1i.overallMissRate::cpu.inst     0.006803                       # miss rate for overall accesses (Ratio)
system.cpu.l1i.overallMissRate::total        0.006803                       # miss rate for overall accesses (Ratio)
system.cpu.l1i.demandAvgMissLatency::cpu.inst 210888.152635                       # average overall miss latency in ticks ((Tick/Count))
system.cpu.l1i.demandAvgMissLatency::total 210888.152635                       # average overall miss latency in ticks ((Tick/Count))
system.cpu.l1i.overallAvgMissLatency::cpu.inst 210888.152635                       # average overall miss latency ((Tick/Count))
system.cpu.l1i.overallAvgMissLatency::total 210888.152635                       # average overall miss latency ((Tick/Count))
system.cpu.l1i.blockedCycles::no_mshrs              0                       # number of cycles access was blocked (Cycle)
system.cpu.l1i.blockedCycles::no_targets            0                       # number of cycles access was blocked (Cycle)
system.cpu.l1i.blockedCauses::no_mshrs              0                       # number of times access was blocked (Count)
system.cpu.l1i.blockedCauses::no_targets            0                       # number of times access was blocked (Count)
system.cpu.l1i.avgBlocked::no_mshrs               nan                       # average number of cycles each access was blocked ((Cycle/Count))
system.cpu.l1i.avgBlocked::no_targets             nan                       # average number of cycles each access was blocked ((Cycle/Count))
system.cpu.l1i.demandMshrMisses::cpu.inst       921745                       # number of demand (read+write) MSHR misses (Count)
system.cpu.l1i.demandMshrMisses::total         921745                       # number of demand (read+write) MSHR misses (Count)
system.cpu.l1i.overallMshrMisses::cpu.inst       921745                       # number of overall MSHR misses (Count)
system.cpu.l1i.overallMshrMisses::total        921745                       # number of overall MSHR misses (Count)
system.cpu.l1i.demandMshrMissLatency::cpu.inst 182095474166                       # number of demand (read+write) MSHR miss ticks (Tick)
system.cpu.l1i.demandMshrMissLatency::total 182095474166                       # number of demand (read+write) MSHR miss ticks (Tick)
system.cpu.l1i.overallMshrMissLatency::cpu.inst 182095474166                       # number of overall MSHR miss ticks (Tick)
system.cpu.l1i.overallMshrMissLatency::total 182095474166                       # number of overall MSHR miss ticks (Tick)
system.cpu.l1i.demandMshrMissRate::cpu.inst     0.006803                       # mshr miss ratio for demand accesses (Ratio)
system.cpu.l1i.demandMshrMissRate::total     0.006803                       # mshr miss ratio for demand accesses (Ratio)
system.cpu.l1i.overallMshrMissRate::cpu.inst     0.006803                       # mshr miss ratio for overall accesses (Ratio)
system.cpu.l1i.overallMshrMissRate::total     0.006803                       # mshr miss ratio for overall accesses (Ratio)
system.cpu.l1i.demandAvgMshrMissLatency::cpu.inst 197555.152635                       # average overall mshr miss latency ((Tick/Count))
system.cpu.l1i.demandAvgMshrMissLatency::total 197555.152635                       # average overall mshr miss latency ((Tick/Count))
system.cpu.l1i.overallAvgMshrMissLatency::cpu.inst 197555.152635                       # average overall mshr miss latency ((Tick/Count))
system.cpu.l1i.overallAvgMshrMissLatency::total 197555.152635                       # average overall mshr miss latency ((Tick/Count))
system.cpu.l1i.replacements                    921681                       # number of replacements (Count)
system.cpu.l1i.ReadReq.hits::cpu.inst       134567595                       # number of ReadReq hits (Count)
system.cpu.l1i.ReadReq.hits::total          134567595                       # number of ReadReq hits (Count)
system.cpu.l1i.ReadReq.misses::cpu.inst        921745                       # number of ReadReq misses (Count)
system.cpu.l1i.ReadReq.misses::total           921745                       # number of ReadReq misses (Count)
system.cpu.l1i.ReadReq.missLatency::cpu.inst 194385100251                       # number of ReadReq miss ticks (Tick)
system.cpu.l1i.ReadReq.missLatency::total 194385100251                       # number of ReadReq miss ticks (Tick)
system.cpu.l1i.ReadReq.accesses::cpu.inst    135489340                       # number of ReadReq accesses(hits+misses) (Count)
system.cpu.l1i.ReadReq.accesses::total      135489340                       # number of ReadReq accesses(hits+misses) (Count)
system.cpu.l1i.ReadReq.missRate::cpu.inst     0.006803                       # miss rate for ReadReq accesses (Ratio)
system.cpu.l1i.ReadReq.missRate::total       0.006803                       # miss rate for ReadReq accesses (Ratio)
system.cpu.l1i.ReadReq.avgMissLatency::cpu.inst 210888.152635                       # average ReadReq miss latency ((Tick/Count))
system.cpu.l1i.ReadReq.avgMissLatency::total 210888.152635                       # average ReadReq miss latency ((Tick/Count))
system.cpu.l1i.ReadReq.mshrMisses::cpu.inst       921745                       # number of ReadReq MSHR misses (Count)
system.cpu.l1i.ReadReq.mshrMisses::total       921745                       # number of ReadReq MSHR misses (Count)
system.cpu.l1i.ReadReq.mshrMissLatency::cpu.inst 182095474166                       # number of ReadReq MSHR miss ticks (Tick)
system.cpu.l1i.ReadReq.mshrMissLatency::total 182095474166                       # number of ReadReq MSHR miss ticks (Tick)
system.cpu.l1i.ReadReq.mshrMissRate::cpu.inst     0.006803                       # mshr miss rate for ReadReq accesses (Ratio)
system.cpu.l1i.ReadReq.mshrMissRate::total     0.006803                       # mshr miss rate for ReadReq accesses (Ratio)
system.cpu.l1i.ReadReq.avgMshrMissLatency::cpu.inst 197555.152635                       # average ReadReq mshr miss latency ((Tick/Count))
system.cpu.l1i.ReadReq.avgMshrMissLatency::total 197555.152635                       # average ReadReq mshr miss latency ((Tick/Count))
system.cpu.l1i.power_state.pwrStateResidencyTicks::UNDEFINED 3040443707007                       # Cumulative time (in ticks) in various power states (Tick)
system.cpu.l1i.tags.tagsInUse               63.998564                       # Average ticks per tags in use ((Tick/Count))
system.cpu.l1i.tags.totalRefs               135321883                       # Total number of references to valid blocks. (Count)
system.cpu.l1i.tags.sampledRefs                921681                       # Sample count of references to valid blocks. (Count)
system.cpu.l1i.tags.avgRefs                146.820736                       # Average number of references to valid blocks. ((Count/Count))
system.cpu.l1i.tags.warmupTick                 199995                       # The tick when the warmup percentage was hit. (Tick)
system.cpu.l1i.tags.occupancies::cpu.inst    63.998564                       # Average occupied blocks per tick, per requestor ((Count/Tick))
system.cpu.l1i.tags.avgOccs::cpu.inst        0.999978                       # Average percentage of cache occupancy ((Ratio/Tick))
system.cpu.l1i.tags.avgOccs::total           0.999978                       # Average percentage of cache occupancy ((Ratio/Tick))
system.cpu.l1i.tags.occupanciesTaskId::1024           64                       # Occupied blocks per task id (Count)
system.cpu.l1i.tags.ageTaskId_1024::0              16                       # Occupied blocks per task id, per block age (Count)
system.cpu.l1i.tags.ageTaskId_1024::1              28                       # Occupied blocks per task id, per block age (Count)
system.cpu.l1i.tags.ageTaskId_1024::2              12                       # Occupied blocks per task id, per block age (Count)
system.cpu.l1i.tags.ageTaskId_1024::4               8                       # Occupied blocks per task id, per block age (Count)
system.cpu.l1i.tags.ratioOccsTaskId::1024            1                       # Ratio of occupied blocks and all blocks, per task id (Ratio)
system.cpu.l1i.tags.tagAccesses             271900425                       # Number of tag accesses (Count)
system.cpu.l1i.tags.dataAccesses            271900425                       # Number of data accesses (Count)
system.cpu.l1i.tags.power_state.pwrStateResidencyTicks::UNDEFINED 3040443707007                       # Cumulative time (in ticks) in various power states (Tick)
system.cpu.mmu.dtb.rdAccesses                31305648                       # TLB accesses on read requests (Count)
system.cpu.mmu.dtb.wrAccesses                14612432                       # TLB accesses on write requests (Count)
system.cpu.mmu.dtb.rdMisses                    193143                       # TLB misses on read requests (Count)
system.cpu.mmu.dtb.wrMisses                      4840                       # TLB misses on write requests (Count)
system.cpu.mmu.dtb.walker.power_state.pwrStateResidencyTicks::UNDEFINED 3040443707007                       # Cumulative time (in ticks) in various power states (Tick)
system.cpu.mmu.itb.rdAccesses                       0                       # TLB accesses on read requests (Count)
system.cpu.mmu.itb.wrAccesses               135489486                       # TLB accesses on write requests (Count)
system.cpu.mmu.itb.rdMisses                         0                       # TLB misses on read requests (Count)
system.cpu.mmu.itb.wrMisses                       703                       # TLB misses on write requests (Count)
system.cpu.mmu.itb.walker.power_state.pwrStateResidencyTicks::UNDEFINED 3040443707007                       # Cumulative time (in ticks) in various power states (Tick)
system.cpu.power_state.pwrStateResidencyTicks::ON 3040443707007                       # Cumulative time (in ticks) in various power states (Tick)
system.cpu.thread_0.numInsts                        0                       # Number of Instructions committed (Count)
system.cpu.thread_0.numOps                          0                       # Number of Ops committed (Count)
system.cpu.thread_0.numMemRefs                      0                       # Number of Memory References (Count)
system.cpu.workload.numSyscalls                   189                       # Number of system calls (Count)
system.mem_ctrl.avgPriority_writebacks::samples    615319.00                       # Average QoS priority value for accepted requests (Count)
system.mem_ctrl.avgPriority_cpu.inst::samples    921745.00                       # Average QoS priority value for accepted requests (Count)
system.mem_ctrl.avgPriority_cpu.data::samples   1720024.00                       # Average QoS priority value for accepted requests (Count)
system.mem_ctrl.priorityMinLatency       0.000000018750                       # per QoS priority minimum request to response latency (Second)
system.mem_ctrl.priorityMaxLatency       0.029142023932                       # per QoS priority maximum request to response latency (Second)
system.mem_ctrl.numReadWriteTurnArounds         34272                       # Number of turnarounds from READ to WRITE (Count)
system.mem_ctrl.numWriteReadTurnArounds         34272                       # Number of turnarounds from WRITE to READ (Count)
system.mem_ctrl.numStayReadState              6828325                       # Number of times bus staying in READ state (Count)
system.mem_ctrl.numStayWriteState              581944                       # Number of times bus staying in WRITE state (Count)
system.mem_ctrl.readReqs                      2941430                       # Number of read requests accepted (Count)
system.mem_ctrl.writeReqs                      768350                       # Number of write requests accepted (Count)
system.mem_ctrl.readBursts                    2941430                       # Number of controller read bursts, including those serviced by the write queue (Count)
system.mem_ctrl.writeBursts                    768350                       # Number of controller write bursts, including those merged in the write queue (Count)
system.mem_ctrl.servicedByWrQ                  299661                       # Number of controller read bursts serviced by the write queue (Count)
system.mem_ctrl.mergedWrBursts                 153031                       # Number of controller write bursts merged with an existing one (Count)
system.mem_ctrl.neitherReadNorWriteReqs             0                       # Number of requests that are neither read nor write (Count)
system.mem_ctrl.avgRdQLen                        1.00                       # Average read queue length when enqueuing ((Count/Tick))
system.mem_ctrl.avgWrQLen                       24.73                       # Average write queue length when enqueuing ((Count/Tick))
system.mem_ctrl.numRdRetry                          0                       # Number of times read queue was full causing retry (Count)
system.mem_ctrl.numWrRetry                          0                       # Number of times write queue was full causing retry (Count)
system.mem_ctrl.readPktSize::0                      0                       # Read request sizes (log2) (Count)
system.mem_ctrl.readPktSize::1                      0                       # Read request sizes (log2) (Count)
system.mem_ctrl.readPktSize::2                      0                       # Read request sizes (log2) (Count)
system.mem_ctrl.readPktSize::3                      0                       # Read request sizes (log2) (Count)
system.mem_ctrl.readPktSize::4                      0                       # Read request sizes (log2) (Count)
system.mem_ctrl.readPktSize::5                      0                       # Read request sizes (log2) (Count)
system.mem_ctrl.readPktSize::6                2941430                       # Read request sizes (log2) (Count)
system.mem_ctrl.writePktSize::0                     0                       # Write request sizes (log2) (Count)
system.mem_ctrl.writePktSize::1                     0                       # Write request sizes (log2) (Count)
system.mem_ctrl.writePktSize::2                     0                       # Write request sizes (log2) (Count)
system.mem_ctrl.writePktSize::3                     0                       # Write request sizes (log2) (Count)
system.mem_ctrl.writePktSize::4                     0                       # Write request sizes (log2) (Count)
system.mem_ctrl.writePktSize::5                     0                       # Write request sizes (log2) (Count)
system.mem_ctrl.writePktSize::6                768350                       # Write request sizes (log2) (Count)
system.mem_ctrl.rdQLenPdf::0                  2641759                       # What read queue length does an incoming req see (Count)
system.mem_ctrl.rdQLenPdf::1                       10                       # What read queue length does an incoming req see (Count)
system.mem_ctrl.rdQLenPdf::2                        0                       # What read queue length does an incoming req see (Count)
system.mem_ctrl.rdQLenPdf::3                        0                       # What read queue length does an incoming req see (Count)
system.mem_ctrl.rdQLenPdf::4                        0                       # What read queue length does an incoming req see (Count)
system.mem_ctrl.rdQLenPdf::5                        0                       # What read queue length does an incoming req see (Count)
system.mem_ctrl.rdQLenPdf::6                        0                       # What read queue length does an incoming req see (Count)
system.mem_ctrl.rdQLenPdf::7                        0                       # What read queue length does an incoming req see (Count)
system.mem_ctrl.rdQLenPdf::8                        0                       # What read queue length does an incoming req see (Count)
system.mem_ctrl.rdQLenPdf::9                        0                       # What read queue length does an incoming req see (Count)
system.mem_ctrl.rdQLenPdf::10                       0                       # What read queue length does an incoming req see (Count)
system.mem_ctrl.rdQLenPdf::11                       0                       # What read queue length does an incoming req see (Count)
system.mem_ctrl.rdQLenPdf::12                       0                       # What read queue length does an incoming req see (Count)
system.mem_ctrl.rdQLenPdf::13                       0                       # What read queue length does an incoming req see (Count)
system.mem_ctrl.rdQLenPdf::14                       0                       # What read queue length does an incoming req see (Count)
system.mem_ctrl.rdQLenPdf::15                       0                       # What read queue length does an incoming req see (Count)
system.mem_ctrl.rdQLenPdf::16                       0                       # What read queue length does an incoming req see (Count)
system.mem_ctrl.rdQLenPdf::17                       0                       # What read queue length does an incoming req see (Count)
system.mem_ctrl.rdQLenPdf::18                       0                       # What read queue length does an incoming req see (Count)
system.mem_ctrl.rdQLenPdf::19                       0                       # What read queue length does an incoming req see (Count)
system.mem_ctrl.rdQLenPdf::20                       0                       # What read queue length does an incoming req see (Count)
system.mem_ctrl.rdQLenPdf::21                       0                       # What read queue length does an incoming req see (Count)
system.mem_ctrl.rdQLenPdf::22                       0                       # What read queue length does an incoming req see (Count)
system.mem_ctrl.rdQLenPdf::23                       0                       # What read queue length does an incoming req see (Count)
system.mem_ctrl.rdQLenPdf::24                       0                       # What read queue length does an incoming req see (Count)
system.mem_ctrl.rdQLenPdf::25                       0                       # What read queue length does an incoming req see (Count)
system.mem_ctrl.rdQLenPdf::26                       0                       # What read queue length does an incoming req see (Count)
system.mem_ctrl.rdQLenPdf::27                       0                       # What read queue length does an incoming req see (Count)
system.mem_ctrl.rdQLenPdf::28                       0                       # What read queue length does an incoming req see (Count)
system.mem_ctrl.rdQLenPdf::29                       0                       # What read queue length does an incoming req see (Count)
system.mem_ctrl.rdQLenPdf::30                       0                       # What read queue length does an incoming req see (Count)
system.mem_ctrl.rdQLenPdf::31                       0                       # What read queue length does an incoming req see (Count)
system.mem_ctrl.wrQLenPdf::0                        1                       # What write queue length does an incoming req see (Count)
system.mem_ctrl.wrQLenPdf::1                        1                       # What write queue length does an incoming req see (Count)
system.mem_ctrl.wrQLenPdf::2                        1                       # What write queue length does an incoming req see (Count)
system.mem_ctrl.wrQLenPdf::3                        1                       # What write queue length does an incoming req see (Count)
system.mem_ctrl.wrQLenPdf::4                        1                       # What write queue length does an incoming req see (Count)
system.mem_ctrl.wrQLenPdf::5                        1                       # What write queue length does an incoming req see (Count)
system.mem_ctrl.wrQLenPdf::6                        1                       # What write queue length does an incoming req see (Count)
system.mem_ctrl.wrQLenPdf::7                        1                       # What write queue length does an incoming req see (Count)
system.mem_ctrl.wrQLenPdf::8                        1                       # What write queue length does an incoming req see (Count)
system.mem_ctrl.wrQLenPdf::9                        1                       # What write queue length does an incoming req see (Count)
system.mem_ctrl.wrQLenPdf::10                       1                       # What write queue length does an incoming req see (Count)
system.mem_ctrl.wrQLenPdf::11                       1                       # What write queue length does an incoming req see (Count)
system.mem_ctrl.wrQLenPdf::12                       1                       # What write queue length does an incoming req see (Count)
system.mem_ctrl.wrQLenPdf::13                       1                       # What write queue length does an incoming req see (Count)
system.mem_ctrl.wrQLenPdf::14                       1                       # What write queue length does an incoming req see (Count)
system.mem_ctrl.wrQLenPdf::15                   32921                       # What write queue length does an incoming req see (Count)
system.mem_ctrl.wrQLenPdf::16                   34006                       # What write queue length does an incoming req see (Count)
system.mem_ctrl.wrQLenPdf::17                   34276                       # What write queue length does an incoming req see (Count)
system.mem_ctrl.wrQLenPdf::18                   34273                       # What write queue length does an incoming req see (Count)
system.mem_ctrl.wrQLenPdf::19                   34273                       # What write queue length does an incoming req see (Count)
system.mem_ctrl.wrQLenPdf::20                   34274                       # What write queue length does an incoming req see (Count)
system.mem_ctrl.wrQLenPdf::21                   34274                       # What write queue length does an incoming req see (Count)
system.mem_ctrl.wrQLenPdf::22                   34274                       # What write queue length does an incoming req see (Count)
system.mem_ctrl.wrQLenPdf::23                   34275                       # What write queue length does an incoming req see (Count)
system.mem_ctrl.wrQLenPdf::24                   34274                       # What write queue length does an incoming req see (Count)
system.mem_ctrl.wrQLenPdf::25                   34274                       # What write queue length does an incoming req see (Count)
system.mem_ctrl.wrQLenPdf::26                   34273                       # What write queue length does an incoming req see (Count)
system.mem_ctrl.wrQLenPdf::27                   34274                       # What write queue length does an incoming req see (Count)
system.mem_ctrl.wrQLenPdf::28                   34273                       # What write queue length does an incoming req see (Count)
system.mem_ctrl.wrQLenPdf::29                   34273                       # What write queue length does an incoming req see (Count)
system.mem_ctrl.wrQLenPdf::30                   34273                       # What write queue length does an incoming req see (Count)
system.mem_ctrl.wrQLenPdf::31                   34272                       # What write queue length does an incoming req see (Count)
system.mem_ctrl.wrQLenPdf::32                   34272                       # What write queue length does an incoming req see (Count)
system.mem_ctrl.wrQLenPdf::33                       0                       # What write queue length does an incoming req see (Count)
system.mem_ctrl.wrQLenPdf::34                       0                       # What write queue length does an incoming req see (Count)
system.mem_ctrl.wrQLenPdf::35                       0                       # What write queue length does an incoming req see (Count)
system.mem_ctrl.wrQLenPdf::36                       0                       # What write queue length does an incoming req see (Count)
system.mem_ctrl.wrQLenPdf::37                       0                       # What write queue length does an incoming req see (Count)
system.mem_ctrl.wrQLenPdf::38                       0                       # What write queue length does an incoming req see (Count)
system.mem_ctrl.wrQLenPdf::39                       0                       # What write queue length does an incoming req see (Count)
system.mem_ctrl.wrQLenPdf::40                       0                       # What write queue length does an incoming req see (Count)
system.mem_ctrl.wrQLenPdf::41                       0                       # What write queue length does an incoming req see (Count)
system.mem_ctrl.wrQLenPdf::42                       0                       # What write queue length does an incoming req see (Count)
system.mem_ctrl.wrQLenPdf::43                       0                       # What write queue length does an incoming req see (Count)
system.mem_ctrl.wrQLenPdf::44                       0                       # What write queue length does an incoming req see (Count)
system.mem_ctrl.wrQLenPdf::45                       0                       # What write queue length does an incoming req see (Count)
system.mem_ctrl.wrQLenPdf::46                       0                       # What write queue length does an incoming req see (Count)
system.mem_ctrl.wrQLenPdf::47                       0                       # What write queue length does an incoming req see (Count)
system.mem_ctrl.wrQLenPdf::48                       0                       # What write queue length does an incoming req see (Count)
system.mem_ctrl.wrQLenPdf::49                       0                       # What write queue length does an incoming req see (Count)
system.mem_ctrl.wrQLenPdf::50                       0                       # What write queue length does an incoming req see (Count)
system.mem_ctrl.wrQLenPdf::51                       0                       # What write queue length does an incoming req see (Count)
system.mem_ctrl.wrQLenPdf::52                       0                       # What write queue length does an incoming req see (Count)
system.mem_ctrl.wrQLenPdf::53                       0                       # What write queue length does an incoming req see (Count)
system.mem_ctrl.wrQLenPdf::54                       0                       # What write queue length does an incoming req see (Count)
system.mem_ctrl.wrQLenPdf::55                       0                       # What write queue length does an incoming req see (Count)
system.mem_ctrl.wrQLenPdf::56                       0                       # What write queue length does an incoming req see (Count)
system.mem_ctrl.wrQLenPdf::57                       0                       # What write queue length does an incoming req see (Count)
system.mem_ctrl.wrQLenPdf::58                       0                       # What write queue length does an incoming req see (Count)
system.mem_ctrl.wrQLenPdf::59                       0                       # What write queue length does an incoming req see (Count)
system.mem_ctrl.wrQLenPdf::60                       0                       # What write queue length does an incoming req see (Count)
system.mem_ctrl.wrQLenPdf::61                       0                       # What write queue length does an incoming req see (Count)
system.mem_ctrl.wrQLenPdf::62                       0                       # What write queue length does an incoming req see (Count)
system.mem_ctrl.wrQLenPdf::63                       0                       # What write queue length does an incoming req see (Count)
system.mem_ctrl.rdPerTurnAround::samples        34272                       # Reads before turning the bus around for writes (Count)
system.mem_ctrl.rdPerTurnAround::mean       77.078285                       # Reads before turning the bus around for writes (Count)
system.mem_ctrl.rdPerTurnAround::gmean      28.977340                       # Reads before turning the bus around for writes (Count)
system.mem_ctrl.rdPerTurnAround::stdev     417.443640                       # Reads before turning the bus around for writes (Count)
system.mem_ctrl.rdPerTurnAround::0-255          33584     97.99%     97.99% # Reads before turning the bus around for writes (Count)
system.mem_ctrl.rdPerTurnAround::256-511          190      0.55%     98.55% # Reads before turning the bus around for writes (Count)
system.mem_ctrl.rdPerTurnAround::512-767           34      0.10%     98.65% # Reads before turning the bus around for writes (Count)
system.mem_ctrl.rdPerTurnAround::768-1023            6      0.02%     98.66% # Reads before turning the bus around for writes (Count)
system.mem_ctrl.rdPerTurnAround::1024-1279            6      0.02%     98.68% # Reads before turning the bus around for writes (Count)
system.mem_ctrl.rdPerTurnAround::1280-1535           13      0.04%     98.72% # Reads before turning the bus around for writes (Count)
system.mem_ctrl.rdPerTurnAround::1536-1791           10      0.03%     98.75% # Reads before turning the bus around for writes (Count)
system.mem_ctrl.rdPerTurnAround::1792-2047           18      0.05%     98.80% # Reads before turning the bus around for writes (Count)
system.mem_ctrl.rdPerTurnAround::2048-2303           26      0.08%     98.88% # Reads before turning the bus around for writes (Count)
system.mem_ctrl.rdPerTurnAround::2304-2559           25      0.07%     98.95% # Reads before turning the bus around for writes (Count)
system.mem_ctrl.rdPerTurnAround::2560-2815           44      0.13%     99.08% # Reads before turning the bus around for writes (Count)
system.mem_ctrl.rdPerTurnAround::2816-3071           34      0.10%     99.18% # Reads before turning the bus around for writes (Count)
system.mem_ctrl.rdPerTurnAround::3072-3327           36      0.11%     99.28% # Reads before turning the bus around for writes (Count)
system.mem_ctrl.rdPerTurnAround::3328-3583           54      0.16%     99.44% # Reads before turning the bus around for writes (Count)
system.mem_ctrl.rdPerTurnAround::3584-3839           32      0.09%     99.53% # Reads before turning the bus around for writes (Count)
system.mem_ctrl.rdPerTurnAround::3840-4095           40      0.12%     99.65% # Reads before turning the bus around for writes (Count)
system.mem_ctrl.rdPerTurnAround::4096-4351           27      0.08%     99.73% # Reads before turning the bus around for writes (Count)
system.mem_ctrl.rdPerTurnAround::4352-4607           15      0.04%     99.77% # Reads before turning the bus around for writes (Count)
system.mem_ctrl.rdPerTurnAround::4608-4863           20      0.06%     99.83% # Reads before turning the bus around for writes (Count)
system.mem_ctrl.rdPerTurnAround::4864-5119            9      0.03%     99.86% # Reads before turning the bus around for writes (Count)
system.mem_ctrl.rdPerTurnAround::5120-5375           16      0.05%     99.90% # Reads before turning the bus around for writes (Count)
system.mem_ctrl.rdPerTurnAround::5376-5631           15      0.04%     99.95% # Reads before turning the bus around for writes (Count)
system.mem_ctrl.rdPerTurnAround::5632-5887            9      0.03%     99.97% # Reads before turning the bus around for writes (Count)
system.mem_ctrl.rdPerTurnAround::5888-6143            4      0.01%     99.99% # Reads before turning the bus around for writes (Count)
system.mem_ctrl.rdPerTurnAround::6144-6399            2      0.01%     99.99% # Reads before turning the bus around for writes (Count)
system.mem_ctrl.rdPerTurnAround::6400-6655            1      0.00%     99.99% # Reads before turning the bus around for writes (Count)
system.mem_ctrl.rdPerTurnAround::6912-7167            1      0.00%    100.00% # Reads before turning the bus around for writes (Count)
system.mem_ctrl.rdPerTurnAround::7168-7423            1      0.00%    100.00% # Reads before turning the bus around for writes (Count)
system.mem_ctrl.rdPerTurnAround::total          34272                       # Reads before turning the bus around for writes (Count)
system.mem_ctrl.wrPerTurnAround::samples        34272                       # Writes before turning the bus around for reads (Count)
system.mem_ctrl.wrPerTurnAround::mean       17.953081                       # Writes before turning the bus around for reads (Count)
system.mem_ctrl.wrPerTurnAround::gmean      17.951286                       # Writes before turning the bus around for reads (Count)
system.mem_ctrl.wrPerTurnAround::stdev       0.247101                       # Writes before turning the bus around for reads (Count)
system.mem_ctrl.wrPerTurnAround::16               268      0.78%      0.78% # Writes before turning the bus around for reads (Count)
system.mem_ctrl.wrPerTurnAround::17              1084      3.16%      3.94% # Writes before turning the bus around for reads (Count)
system.mem_ctrl.wrPerTurnAround::18             32908     96.02%     99.96% # Writes before turning the bus around for reads (Count)
system.mem_ctrl.wrPerTurnAround::19                12      0.04%    100.00% # Writes before turning the bus around for reads (Count)
system.mem_ctrl.wrPerTurnAround::total          34272                       # Writes before turning the bus around for reads (Count)
system.mem_ctrl.bytesReadWrQ                 19178304                       # Total number of bytes read from write queue (Byte)
system.mem_ctrl.bytesReadSys                188251520                       # Total read bytes from the system interface side (Byte)
system.mem_ctrl.bytesWrittenSys              49174400                       # Total written bytes from the system interface side (Byte)
system.mem_ctrl.avgRdBWSys               61915805.10639153                       # Average system read bandwidth in Byte/s ((Byte/Second))
system.mem_ctrl.avgWrBWSys               16173428.86062083                       # Average system write bandwidth in Byte/s ((Byte/Second))
system.mem_ctrl.totGap                   3040443480346                       # Total gap between requests (Tick)
system.mem_ctrl.avgGap                      819575.14                       # Average gap between requests ((Tick/Count))
system.mem_ctrl.requestorReadBytes::cpu.inst     58991680                       # Per-requestor bytes read from memory (Byte)
system.mem_ctrl.requestorReadBytes::cpu.data    110081536                       # Per-requestor bytes read from memory (Byte)
system.mem_ctrl.requestorWriteBytes::writebacks     39378432                       # Per-requestor bytes write to memory (Byte)
system.mem_ctrl.requestorReadRate::cpu.inst 19402326.003947354853                       # Per-requestor bytes read from memory rate ((Byte/Second))
system.mem_ctrl.requestorReadRate::cpu.data 36205747.123785369098                       # Per-requestor bytes read from memory rate ((Byte/Second))
system.mem_ctrl.requestorWriteRate::writebacks 12951541.220529276878                       # Per-requestor bytes write to memory rate ((Byte/Second))
system.mem_ctrl.requestorReadAccesses::cpu.inst       921745                       # Per-requestor read serviced memory accesses (Count)
system.mem_ctrl.requestorReadAccesses::cpu.data      2019685                       # Per-requestor read serviced memory accesses (Count)
system.mem_ctrl.requestorWriteAccesses::writebacks       768350                       # Per-requestor write serviced memory accesses (Count)
system.mem_ctrl.requestorReadTotalLat::cpu.inst  27122155428                       # Per-requestor read total memory access latency (Tick)
system.mem_ctrl.requestorReadTotalLat::cpu.data  55237173571                       # Per-requestor read total memory access latency (Tick)
system.mem_ctrl.requestorWriteTotalLat::writebacks 72694116572710                       # Per-requestor write total memory access latency (Tick)
system.mem_ctrl.requestorReadAvgLat::cpu.inst     29424.79                       # Per-requestor read average memory access latency ((Tick/Count))
system.mem_ctrl.requestorReadAvgLat::cpu.data     27349.40                       # Per-requestor read average memory access latency ((Tick/Count))
system.mem_ctrl.requestorWriteAvgLat::writebacks  94610680.77                       # Per-requestor write average memory access latency ((Tick/Count))
system.mem_ctrl.dram.bytesRead::cpu.inst     58991680                       # Number of bytes read from this memory (Byte)
system.mem_ctrl.dram.bytesRead::cpu.data    129259840                       # Number of bytes read from this memory (Byte)
system.mem_ctrl.dram.bytesRead::total       188251520                       # Number of bytes read from this memory (Byte)
system.mem_ctrl.dram.bytesInstRead::cpu.inst     58991680                       # Number of instructions bytes read from this memory (Byte)
system.mem_ctrl.dram.bytesInstRead::total     58991680                       # Number of instructions bytes read from this memory (Byte)
system.mem_ctrl.dram.bytesWritten::writebacks     49174400                       # Number of bytes written to this memory (Byte)
system.mem_ctrl.dram.bytesWritten::total     49174400                       # Number of bytes written to this memory (Byte)
system.mem_ctrl.dram.numReads::cpu.inst        921745                       # Number of read requests responded to by this memory (Count)
system.mem_ctrl.dram.numReads::cpu.data       2019685                       # Number of read requests responded to by this memory (Count)
system.mem_ctrl.dram.numReads::total          2941430                       # Number of read requests responded to by this memory (Count)
system.mem_ctrl.dram.numWrites::writebacks       768350                       # Number of write requests responded to by this memory (Count)
system.mem_ctrl.dram.numWrites::total          768350                       # Number of write requests responded to by this memory (Count)
system.mem_ctrl.dram.bwRead::cpu.inst        19402326                       # Total read bandwidth from this memory ((Byte/Second))
system.mem_ctrl.dram.bwRead::cpu.data        42513479                       # Total read bandwidth from this memory ((Byte/Second))
system.mem_ctrl.dram.bwRead::total           61915805                       # Total read bandwidth from this memory ((Byte/Second))
system.mem_ctrl.dram.bwInstRead::cpu.inst     19402326                       # Instruction read bandwidth from this memory ((Byte/Second))
system.mem_ctrl.dram.bwInstRead::total       19402326                       # Instruction read bandwidth from this memory ((Byte/Second))
system.mem_ctrl.dram.bwWrite::writebacks     16173429                       # Write bandwidth from this memory ((Byte/Second))
system.mem_ctrl.dram.bwWrite::total          16173429                       # Write bandwidth from this memory ((Byte/Second))
system.mem_ctrl.dram.bwTotal::writebacks     16173429                       # Total bandwidth to/from this memory ((Byte/Second))
system.mem_ctrl.dram.bwTotal::cpu.inst       19402326                       # Total bandwidth to/from this memory ((Byte/Second))
system.mem_ctrl.dram.bwTotal::cpu.data       42513479                       # Total bandwidth to/from this memory ((Byte/Second))
system.mem_ctrl.dram.bwTotal::total          78089234                       # Total bandwidth to/from this memory ((Byte/Second))
system.mem_ctrl.dram.readBursts               2641769                       # Number of DRAM read bursts (Count)
system.mem_ctrl.dram.writeBursts               615288                       # Number of DRAM write bursts (Count)
system.mem_ctrl.dram.perBankRdBursts::0        321037                       # Per bank write bursts (Count)
system.mem_ctrl.dram.perBankRdBursts::1        161120                       # Per bank write bursts (Count)
system.mem_ctrl.dram.perBankRdBursts::2        167509                       # Per bank write bursts (Count)
system.mem_ctrl.dram.perBankRdBursts::3        114795                       # Per bank write bursts (Count)
system.mem_ctrl.dram.perBankRdBursts::4         76200                       # Per bank write bursts (Count)
system.mem_ctrl.dram.perBankRdBursts::5        101510                       # Per bank write bursts (Count)
system.mem_ctrl.dram.perBankRdBursts::6        113107                       # Per bank write bursts (Count)
system.mem_ctrl.dram.perBankRdBursts::7        145653                       # Per bank write bursts (Count)
system.mem_ctrl.dram.perBankRdBursts::8         74588                       # Per bank write bursts (Count)
system.mem_ctrl.dram.perBankRdBursts::9        111110                       # Per bank write bursts (Count)
system.mem_ctrl.dram.perBankRdBursts::10       113137                       # Per bank write bursts (Count)
system.mem_ctrl.dram.perBankRdBursts::11       164621                       # Per bank write bursts (Count)
system.mem_ctrl.dram.perBankRdBursts::12        77700                       # Per bank write bursts (Count)
system.mem_ctrl.dram.perBankRdBursts::13       422186                       # Per bank write bursts (Count)
system.mem_ctrl.dram.perBankRdBursts::14       209167                       # Per bank write bursts (Count)
system.mem_ctrl.dram.perBankRdBursts::15       268329                       # Per bank write bursts (Count)
system.mem_ctrl.dram.perBankWrBursts::0        121988                       # Per bank write bursts (Count)
system.mem_ctrl.dram.perBankWrBursts::1         28475                       # Per bank write bursts (Count)
system.mem_ctrl.dram.perBankWrBursts::2         28208                       # Per bank write bursts (Count)
system.mem_ctrl.dram.perBankWrBursts::3         30289                       # Per bank write bursts (Count)
system.mem_ctrl.dram.perBankWrBursts::4         28771                       # Per bank write bursts (Count)
system.mem_ctrl.dram.perBankWrBursts::5         28676                       # Per bank write bursts (Count)
system.mem_ctrl.dram.perBankWrBursts::6         29271                       # Per bank write bursts (Count)
system.mem_ctrl.dram.perBankWrBursts::7         29284                       # Per bank write bursts (Count)
system.mem_ctrl.dram.perBankWrBursts::8         29002                       # Per bank write bursts (Count)
[...]
system.mem_ctrl.dram.bwRead::cpu.data        66497131                       # Total read bandwidth from this memory ((Byte/Second))
system.mem_ctrl.dram.bwRead::total          130854945                       # Total read bandwidth from this memory ((Byte/Second))
system.mem_ctrl.dram.bwInstRead::cpu.inst     64357813                       # Instruction read bandwidth from this memory ((Byte/Second))
system.mem_ctrl.dram.bwInstRead::total       64357813                       # Instruction read bandwidth from this memory ((Byte/Second))
system.mem_ctrl.dram.bwWrite::writebacks     21545987                       # Write bandwidth from this memory ((Byte/Second))
system.mem_ctrl.dram.bwWrite::total          21545987                       # Write bandwidth from this memory ((Byte/Second))
system.mem_ctrl.dram.bwTotal::writebacks     21545987                       # Total bandwidth to/from this memory ((Byte/Second))
system.mem_ctrl.dram.bwTotal::cpu.inst       64357813                       # Total bandwidth to/from this memory ((Byte/Second))
system.mem_ctrl.dram.bwTotal::cpu.data       66497131                       # Total bandwidth to/from this memory ((Byte/Second))
system.mem_ctrl.dram.bwTotal::total         152400932                       # Total bandwidth to/from this memory ((Byte/Second))
system.mem_ctrl.dram.readBursts                  4742                       # Number of DRAM read bursts (Count)
system.mem_ctrl.dram.writeBursts                  676                       # Number of DRAM write bursts (Count)
system.mem_ctrl.dram.perBankRdBursts::0           169                       # Per bank write bursts (Count)
system.mem_ctrl.dram.perBankRdBursts::1           173                       # Per bank write bursts (Count)
system.mem_ctrl.dram.perBankRdBursts::2           153                       # Per bank write bursts (Count)
system.mem_ctrl.dram.perBankRdBursts::3           252                       # Per bank write bursts (Count)
system.mem_ctrl.dram.perBankRdBursts::4           437                       # Per bank write bursts (Count)
system.mem_ctrl.dram.perBankRdBursts::5           289                       # Per bank write bursts (Count)
system.mem_ctrl.dram.perBankRdBursts::6           508                       # Per bank write bursts (Count)
system.mem_ctrl.dram.perBankRdBursts::7           505                       # Per bank write bursts (Count)
system.mem_ctrl.dram.perBankRdBursts::8           250                       # Per bank write bursts (Count)
system.mem_ctrl.dram.perBankRdBursts::9           237                       # Per bank write bursts (Count)
system.mem_ctrl.dram.perBankRdBursts::10          302                       # Per bank write bursts (Count)
system.mem_ctrl.dram.perBankRdBursts::11          252                       # Per bank write bursts (Count)
system.mem_ctrl.dram.perBankRdBursts::12          180                       # Per bank write bursts (Count)
system.mem_ctrl.dram.perBankRdBursts::13          170                       # Per bank write bursts (Count)
system.mem_ctrl.dram.perBankRdBursts::14          549                       # Per bank write bursts (Count)
system.mem_ctrl.dram.perBankRdBursts::15          316                       # Per bank write bursts (Count)
system.mem_ctrl.dram.perBankWrBursts::0            47                       # Per bank write bursts (Count)
system.mem_ctrl.dram.perBankWrBursts::1             2                       # Per bank write bursts (Count)
system.mem_ctrl.dram.perBankWrBursts::2            50                       # Per bank write bursts (Count)
system.mem_ctrl.dram.perBankWrBursts::3             9                       # Per bank write bursts (Count)
system.mem_ctrl.dram.perBankWrBursts::4            21                       # Per bank write bursts (Count)
system.mem_ctrl.dram.perBankWrBursts::5             1                       # Per bank write bursts (Count)
system.mem_ctrl.dram.perBankWrBursts::6            13                       # Per bank write bursts (Count)
system.mem_ctrl.dram.perBankWrBursts::7            31                       # Per bank write bursts (Count)
system.mem_ctrl.dram.perBankWrBursts::8             0                       # Per bank write bursts (Count)
system.mem_ctrl.dram.perBankWrBursts::9             2                       # Per bank write bursts (Count)
system.mem_ctrl.dram.perBankWrBursts::10           57                       # Per bank write bursts (Count)
system.mem_ctrl.dram.perBankWrBursts::11           62                       # Per bank write bursts (Count)
system.mem_ctrl.dram.perBankWrBursts::12           48                       # Per bank write bursts (Count)
system.mem_ctrl.dram.perBankWrBursts::13           33                       # Per bank write bursts (Count)
system.mem_ctrl.dram.perBankWrBursts::14          281                       # Per bank write bursts (Count)
system.mem_ctrl.dram.perBankWrBursts::15           19                       # Per bank write bursts (Count)
system.mem_ctrl.dram.totQLat                 71548427                       # Total ticks spent queuing (Tick)
system.mem_ctrl.dram.totBusLat               23710000                       # Total ticks spent in databus transfers (Tick)
system.mem_ctrl.dram.totMemAccLat           160460927                       # Total ticks spent from burst creation until serviced by the DRAM (Tick)
system.mem_ctrl.dram.avgQLat                 15088.24                       # Average queueing delay per DRAM burst ((Tick/Count))
system.mem_ctrl.dram.avgBusLat                5000.00                       # Average bus latency per DRAM burst ((Tick/Count))
system.mem_ctrl.dram.avgMemAccLat            33838.24                       # Average memory access latency per DRAM burst ((Tick/Count))
system.mem_ctrl.dram.readRowHits                 2075                       # Number of row buffer hits during reads (Count)
system.mem_ctrl.dram.writeRowHits                 477                       # Number of row buffer hits during writes (Count)
system.mem_ctrl.dram.readRowHitRate             43.76                       # Row buffer hit rate for reads (Ratio)
system.mem_ctrl.dram.writeRowHitRate            70.56                       # Row buffer hit rate for writes (Ratio)
system.mem_ctrl.dram.bytesPerActivate::samples         2862                       # Bytes accessed per row activation (Byte)
system.mem_ctrl.dram.bytesPerActivate::mean   120.911251                       # Bytes accessed per row activation (Byte)
system.mem_ctrl.dram.bytesPerActivate::gmean    96.731455                       # Bytes accessed per row activation (Byte)
system.mem_ctrl.dram.bytesPerActivate::stdev   109.792890                       # Bytes accessed per row activation (Byte)
system.mem_ctrl.dram.bytesPerActivate::0-127         1737     60.69%     60.69% # Bytes accessed per row activation (Byte)
system.mem_ctrl.dram.bytesPerActivate::128-255          820     28.65%     89.34% # Bytes accessed per row activation (Byte)
system.mem_ctrl.dram.bytesPerActivate::256-383          171      5.97%     95.32% # Bytes accessed per row activation (Byte)
system.mem_ctrl.dram.bytesPerActivate::384-511           81      2.83%     98.15% # Bytes accessed per row activation (Byte)
system.mem_ctrl.dram.bytesPerActivate::512-639           25      0.87%     99.02% # Bytes accessed per row activation (Byte)
system.mem_ctrl.dram.bytesPerActivate::640-767           17      0.59%     99.62% # Bytes accessed per row activation (Byte)
system.mem_ctrl.dram.bytesPerActivate::768-895            5      0.17%     99.79% # Bytes accessed per row activation (Byte)
system.mem_ctrl.dram.bytesPerActivate::896-1023            2      0.07%     99.86% # Bytes accessed per row activation (Byte)
system.mem_ctrl.dram.bytesPerActivate::1024-1151            4      0.14%    100.00% # Bytes accessed per row activation (Byte)
system.mem_ctrl.dram.bytesPerActivate::total         2862                       # Bytes accessed per row activation (Byte)
system.mem_ctrl.dram.dramBytesRead             303488                       # Total bytes read (Byte)
system.mem_ctrl.dram.dramBytesWritten           43264                       # Total bytes written (Byte)
system.mem_ctrl.dram.avgRdBW               120.769589                       # Average DRAM read bandwidth in MiBytes/s ((Byte/Second))
system.mem_ctrl.dram.avgWrBW                17.216415                       # Average DRAM write bandwidth in MiBytes/s ((Byte/Second))
system.mem_ctrl.dram.peakBW                  12800.00                       # Theoretical peak bandwidth in MiByte/s ((Byte/Second))
system.mem_ctrl.dram.busUtil                     1.08                       # Data bus utilization in percentage (Ratio)
system.mem_ctrl.dram.busUtilRead                 0.94                       # Data bus utilization in percentage for reads (Ratio)
system.mem_ctrl.dram.busUtilWrite                0.13                       # Data bus utilization in percentage for writes (Ratio)
system.mem_ctrl.dram.pageHitRate                47.10                       # Row buffer hit rate, read and write combined (Ratio)
system.mem_ctrl.dram.power_state.pwrStateResidencyTicks::UNDEFINED   2512950508                       # Cumulative time (in ticks) in various power states (Tick)
system.mem_ctrl.dram.rank0.actEnergy         10310160                       # Energy for activate commands per rank (pJ) (Joule)
system.mem_ctrl.dram.rank0.preEnergy          5472390                       # Energy for precharge commands per rank (pJ) (Joule)
system.mem_ctrl.dram.rank0.readEnergy        17750040                       # Energy for read commands per rank (pJ) (Joule)
system.mem_ctrl.dram.rank0.writeEnergy         908280                       # Energy for write commands per rank (pJ) (Joule)
system.mem_ctrl.dram.rank0.refreshEnergy 197914080.000000                       # Energy for refresh commands per rank (pJ) (Joule)
system.mem_ctrl.dram.rank0.actBackEnergy    960247080                       # Energy for active background per rank (pJ) (Joule)
system.mem_ctrl.dram.rank0.preBackEnergy    156343680                       # Energy for precharge background per rank (pJ) (Joule)
system.mem_ctrl.dram.rank0.actPowerDownEnergy            0                       # Energy for active power-down per rank (pJ) (Joule)
system.mem_ctrl.dram.rank0.prePowerDownEnergy            0                       # Energy for precharge power-down per rank (pJ) (Joule)
system.mem_ctrl.dram.rank0.selfRefreshEnergy            0                       # Energy for self refresh per rank (pJ) (Joule)
system.mem_ctrl.dram.rank0.totalEnergy     1348945710                       # Total energy per rank (pJ) (Joule)
system.mem_ctrl.dram.rank0.averagePower    536.797564                       # Core power per rank (mW) (Watt)
system.mem_ctrl.dram.rank0.totalIdleTime            0                       # Total Idle time Per DRAM Rank (Tick)
system.mem_ctrl.dram.rank0.pwrStateTime::IDLE    397377540                       # Time in different power states (Tick)
system.mem_ctrl.dram.rank0.pwrStateTime::REF     83720000                       # Time in different power states (Tick)
system.mem_ctrl.dram.rank0.pwrStateTime::SREF            0                       # Time in different power states (Tick)
system.mem_ctrl.dram.rank0.pwrStateTime::PRE_PDN            0                       # Time in different power states (Tick)
system.mem_ctrl.dram.rank0.pwrStateTime::ACT   2031852968                       # Time in different power states (Tick)
system.mem_ctrl.dram.rank0.pwrStateTime::ACT_PDN            0                       # Time in different power states (Tick)
system.mem_ctrl.dram.rank1.actEnergy         10153080                       # Energy for activate commands per rank (pJ) (Joule)
system.mem_ctrl.dram.rank1.preEnergy          5388900                       # Energy for precharge commands per rank (pJ) (Joule)
system.mem_ctrl.dram.rank1.readEnergy        16107840                       # Energy for read commands per rank (pJ) (Joule)
system.mem_ctrl.dram.rank1.writeEnergy        2620440                       # Energy for write commands per rank (pJ) (Joule)
system.mem_ctrl.dram.rank1.refreshEnergy 197914080.000000                       # Energy for refresh commands per rank (pJ) (Joule)
system.mem_ctrl.dram.rank1.actBackEnergy    917917740                       # Energy for active background per rank (pJ) (Joule)
system.mem_ctrl.dram.rank1.preBackEnergy    191989440                       # Energy for precharge background per rank (pJ) (Joule)
system.mem_ctrl.dram.rank1.actPowerDownEnergy            0                       # Energy for active power-down per rank (pJ) (Joule)
system.mem_ctrl.dram.rank1.prePowerDownEnergy            0                       # Energy for precharge power-down per rank (pJ) (Joule)
system.mem_ctrl.dram.rank1.selfRefreshEnergy            0                       # Energy for self refresh per rank (pJ) (Joule)
system.mem_ctrl.dram.rank1.totalEnergy     1342091520                       # Total energy per rank (pJ) (Joule)
system.mem_ctrl.dram.rank1.averagePower    534.070017                       # Core power per rank (mW) (Watt)
system.mem_ctrl.dram.rank1.totalIdleTime            0                       # Total Idle time Per DRAM Rank (Tick)
system.mem_ctrl.dram.rank1.pwrStateTime::IDLE    490749043                       # Time in different power states (Tick)
system.mem_ctrl.dram.rank1.pwrStateTime::REF     83720000                       # Time in different power states (Tick)
system.mem_ctrl.dram.rank1.pwrStateTime::SREF            0                       # Time in different power states (Tick)
system.mem_ctrl.dram.rank1.pwrStateTime::PRE_PDN            0                       # Time in different power states (Tick)
system.mem_ctrl.dram.rank1.pwrStateTime::ACT   1938481465                       # Time in different power states (Tick)
system.mem_ctrl.dram.rank1.pwrStateTime::ACT_PDN            0                       # Time in different power states (Tick)
system.mem_ctrl.power_state.pwrStateResidencyTicks::UNDEFINED   2512950508                       # Cumulative time (in ticks) in various power states (Tick)
system.membus.transDist::ReadResp                4804                       # Transaction distribution (Count)
system.membus.transDist::WritebackDirty           846                       # Transaction distribution (Count)
system.membus.transDist::CleanEvict              4292                       # Transaction distribution (Count)
system.membus.transDist::ReadExReq                334                       # Transaction distribution (Count)
system.membus.transDist::ReadExResp               334                       # Transaction distribution (Count)
system.membus.transDist::ReadSharedReq           4804                       # Transaction distribution (Count)
system.membus.pktCount_system.cpu.l1d.mem_side_port::system.mem_ctrl.port         7833                       # Packet count per connected requestor and responder (Count)
system.membus.pktCount_system.cpu.l1d.mem_side_port::total         7833                       # Packet count per connected requestor and responder (Count)
system.membus.pktCount_system.cpu.l1i.mem_side_port::system.mem_ctrl.port         7581                       # Packet count per connected requestor and responder (Count)
system.membus.pktCount_system.cpu.l1i.mem_side_port::total         7581                       # Packet count per connected requestor and responder (Count)
system.membus.pktCount::total                   15414                       # Packet count per connected requestor and responder (Count)
system.membus.pktSize_system.cpu.l1d.mem_side_port::system.mem_ctrl.port       221248                       # Cumulative packet size per connected requestor and responder (Byte)
system.membus.pktSize_system.cpu.l1d.mem_side_port::total       221248                       # Cumulative packet size per connected requestor and responder (Byte)
system.membus.pktSize_system.cpu.l1i.mem_side_port::system.mem_ctrl.port       161728                       # Cumulative packet size per connected requestor and responder (Byte)
system.membus.pktSize_system.cpu.l1i.mem_side_port::total       161728                       # Cumulative packet size per connected requestor and responder (Byte)
system.membus.pktSize::total                   382976                       # Cumulative packet size per connected requestor and responder (Byte)
system.membus.snoops                                0                       # Total snoops (Count)
system.membus.snoopTraffic                          0                       # Total snoop traffic (Byte)
system.membus.snoopFanout::samples               5138                       # Request fanout histogram (Count)
system.membus.snoopFanout::mean                     0                       # Request fanout histogram (Count)
system.membus.snoopFanout::stdev                    0                       # Request fanout histogram (Count)
system.membus.snoopFanout::underflows               0      0.00%      0.00% # Request fanout histogram (Count)
system.membus.snoopFanout::0                     5138    100.00%    100.00% # Request fanout histogram (Count)
system.membus.snoopFanout::1                        0      0.00%    100.00% # Request fanout histogram (Count)
system.membus.snoopFanout::2                        0      0.00%    100.00% # Request fanout histogram (Count)
system.membus.snoopFanout::overflows                0      0.00%    100.00% # Request fanout histogram (Count)
system.membus.snoopFanout::min_value                0                       # Request fanout histogram (Count)
system.membus.snoopFanout::max_value                0                       # Request fanout histogram (Count)
system.membus.snoopFanout::total                 5138                       # Request fanout histogram (Count)
system.membus.power_state.pwrStateResidencyTicks::UNDEFINED   2512950508                       # Cumulative time (in ticks) in various power states (Tick)
system.membus.reqLayer2.occupancy           182128780                       # Layer occupancy (ticks) (Tick)
system.membus.reqLayer2.utilization               0.1                       # Layer utilization (Ratio)
system.membus.respLayer2.occupancy          177953448                       # Layer occupancy (ticks) (Tick)
system.membus.respLayer2.utilization              0.1                       # Layer utilization (Ratio)
system.membus.respLayer3.occupancy          171691654                       # Layer occupancy (ticks) (Tick)
system.membus.respLayer3.utilization              0.1                       # Layer utilization (Ratio)
system.membus.snoop_filter.totRequests          10276                       # Total number of requests made to the snoop filter. (Count)
system.membus.snoop_filter.hitSingleRequests         5138                       # Number of requests hitting in the snoop filter with a single holder of the requested data. (Count)
system.membus.snoop_filter.hitMultiRequests            0                       # Number of requests hitting in the snoop filter with multiple (>1) holders of the requested data. (Count)
system.membus.snoop_filter.totSnoops                0                       # Total number of snoops made to the snoop filter. (Count)
system.membus.snoop_filter.hitSingleSnoops            0                       # Number of snoops hitting in the snoop filter with a single holder of the requested data. (Count)
system.membus.snoop_filter.hitMultiSnoops            0                       # Number of snoops hitting in the snoop filter with multiple (>1) holders of the requested data. (Count)
system.workload.inst.arm                            0                       # number of arm instructions executed (Count)
system.workload.inst.quiesce                        0                       # number of quiesce instructions executed (Count)

---------- End Simulation Statistics   ----------
