
---------- Begin Simulation Statistics ----------
simSeconds                                   7.907275                       # Number of seconds simulated (Second)
simTicks                                 7907275499837                       # Number of ticks simulated (Tick)
finalTick                                7907275499837                       # Number of ticks from beginning of simulation (restored from checkpoints and never reset) (Tick)
simFreq                                  1000000000000                       # The number of ticks per simulated second ((Tick/Second))
hostSeconds                                   4109.66                       # Real time elapsed on the host (Second)
hostTickRate                               1924072276                       # The number of ticks simulated per host second (ticks/s) ((Tick/Second))
hostMemory                                    8689308                       # Number of bytes of host memory used (Byte)
simInsts                                    721147210                       # Number of instructions simulated (Count)
simOps                                     1208781187                       # Number of ops (including micro ops) simulated (Count)
hostInstRate                                   175476                       # Simulator instruction rate (inst/s) ((Count/Second))
hostOpRate                                     294132                       # Simulator op (including micro ops) rate (op/s) ((Count/Second))
system.clk_domain.clock                         13333                       # Clock period in ticks (Tick)
system.clk_domain.voltage_domain.voltage            1                       # Voltage in Volts (Volt)
system.cpu.numCycles                        593060490                       # Number of cpu cycles simulated (Cycle)
system.cpu.cpi                               0.822385                       # CPI: cycles per instruction (core level) ((Cycle/Count))
system.cpu.ipc                               1.215976                       # IPC: instructions per cycle (core level) ((Count/Cycle))
system.cpu.numWorkItemsStarted                      0                       # Number of work items this cpu started (Count)
system.cpu.numWorkItemsCompleted                    0                       # Number of work items this cpu completed (Count)
system.cpu.instsAdded                      1787018445                       # Number of instructions added to the IQ (excludes non-spec) (Count)
system.cpu.nonSpecInstsAdded                  8507538                       # Number of non-speculative instructions added to the IQ (Count)
system.cpu.instsIssued                     1633078347                       # Number of instructions issued (Count)
system.cpu.squashedInstsIssued                3241465                       # Number of squashed instructions issued (Count)
system.cpu.squashedInstsExamined            586744775                       # Number of squashed instructions iterated over during squash; mainly for profiling (Count)
system.cpu.squashedOperandsExamined         770297489                       # Number of squashed operands that are examined and possibly removed from graph (Count)
system.cpu.squashedNonSpecRemoved             2157318                       # Number of squashed non-spec instructions that were removed (Count)
system.cpu.numIssuedDist::samples           592628828                       # Number of insts issued each cycle (Count)
system.cpu.numIssuedDist::mean               2.755651                       # Number of insts issued each cycle (Count)
system.cpu.numIssuedDist::stdev              2.778267                       # Number of insts issued each cycle (Count)
system.cpu.numIssuedDist::underflows                0      0.00%      0.00% # Number of insts issued each cycle (Count)
system.cpu.numIssuedDist::0                 202516140     34.17%     34.17% # Number of insts issued each cycle (Count)
system.cpu.numIssuedDist::1                  72713646     12.27%     46.44% # Number of insts issued each cycle (Count)
system.cpu.numIssuedDist::2                  52747811      8.90%     55.34% # Number of insts issued each cycle (Count)
system.cpu.numIssuedDist::3                  48058152      8.11%     63.45% # Number of insts issued each cycle (Count)
system.cpu.numIssuedDist::4                  40833507      6.89%     70.34% # Number of insts issued each cycle (Count)
system.cpu.numIssuedDist::5                  39164656      6.61%     76.95% # Number of insts issued each cycle (Count)
system.cpu.numIssuedDist::6                  51066399      8.62%     85.57% # Number of insts issued each cycle (Count)
system.cpu.numIssuedDist::7                  39089215      6.60%     92.16% # Number of insts issued each cycle (Count)
system.cpu.numIssuedDist::8                  46439302      7.84%    100.00% # Number of insts issued each cycle (Count)
system.cpu.numIssuedDist::overflows                 0      0.00%    100.00% # Number of insts issued each cycle (Count)
system.cpu.numIssuedDist::min_value                 0                       # Number of insts issued each cycle (Count)
system.cpu.numIssuedDist::max_value                 8                       # Number of insts issued each cycle (Count)
system.cpu.numIssuedDist::total             592628828                       # Number of insts issued each cycle (Count)
system.cpu.statFuBusy::No_OpClass                   0      0.00%      0.00% # attempts to use FU when none available (Count)
system.cpu.statFuBusy::IntAlu                26213613     63.58%     63.58% # attempts to use FU when none available (Count)
system.cpu.statFuBusy::IntMult                      0      0.00%     63.58% # attempts to use FU when none available (Count)
system.cpu.statFuBusy::IntDiv                       0      0.00%     63.58% # attempts to use FU when none available (Count)
system.cpu.statFuBusy::FloatAdd                345189      0.84%     64.41% # attempts to use FU when none available (Count)
system.cpu.statFuBusy::FloatCmp                     0      0.00%     64.41% # attempts to use FU when none available (Count)
system.cpu.statFuBusy::FloatCvt                     0      0.00%     64.41% # attempts to use FU when none available (Count)
system.cpu.statFuBusy::FloatMult                    0      0.00%     64.41% # attempts to use FU when none available (Count)
system.cpu.statFuBusy::FloatMultAcc                 0      0.00%     64.41% # attempts to use FU when none available (Count)
system.cpu.statFuBusy::FloatDiv                     0      0.00%     64.41% # attempts to use FU when none available (Count)
system.cpu.statFuBusy::FloatMisc                    0      0.00%     64.41% # attempts to use FU when none available (Count)
system.cpu.statFuBusy::FloatSqrt                    0      0.00%     64.41% # attempts to use FU when none available (Count)
system.cpu.statFuBusy::SimdAdd                     17      0.00%     64.41% # attempts to use FU when none available (Count)
system.cpu.statFuBusy::SimdAddAcc                   0      0.00%     64.41% # attempts to use FU when none available (Count)
system.cpu.statFuBusy::SimdAlu                  69205      0.17%     64.58% # attempts to use FU when none available (Count)
system.cpu.statFuBusy::SimdCmp                      1      0.00%     64.58% # attempts to use FU when none available (Count)
system.cpu.statFuBusy::SimdCvt                    229      0.00%     64.58% # attempts to use FU when none available (Count)
system.cpu.statFuBusy::SimdMisc                    33      0.00%     64.58% # attempts to use FU when none available (Count)
system.cpu.statFuBusy::SimdMult                     0      0.00%     64.58% # attempts to use FU when none available (Count)
system.cpu.statFuBusy::SimdMultAcc                  0      0.00%     64.58% # attempts to use FU when none available (Count)
system.cpu.statFuBusy::SimdMatMultAcc               0      0.00%     64.58% # attempts to use FU when none available (Count)
system.cpu.statFuBusy::SimdShift                   37      0.00%     64.58% # attempts to use FU when none available (Count)
system.cpu.statFuBusy::SimdShiftAcc                 0      0.00%     64.58% # attempts to use FU when none available (Count)
system.cpu.statFuBusy::SimdDiv                      0      0.00%     64.58% # attempts to use FU when none available (Count)
system.cpu.statFuBusy::SimdSqrt                     0      0.00%     64.58% # attempts to use FU when none available (Count)
system.cpu.statFuBusy::SimdFloatAdd            285749      0.69%     65.28% # attempts to use FU when none available (Count)
system.cpu.statFuBusy::SimdFloatAlu                 0      0.00%     65.28% # attempts to use FU when none available (Count)
system.cpu.statFuBusy::SimdFloatCmp                 0      0.00%     65.28% # attempts to use FU when none available (Count)
system.cpu.statFuBusy::SimdFloatCvt                 0      0.00%     65.28% # attempts to use FU when none available (Count)
system.cpu.statFuBusy::SimdFloatDiv                59      0.00%     65.28% # attempts to use FU when none available (Count)
system.cpu.statFuBusy::SimdFloatMisc                0      0.00%     65.28% # attempts to use FU when none available (Count)
system.cpu.statFuBusy::SimdFloatMult           677215      1.64%     66.92% # attempts to use FU when none available (Count)
system.cpu.statFuBusy::SimdFloatMultAcc             0      0.00%     66.92% # attempts to use FU when none available (Count)
system.cpu.statFuBusy::SimdFloatMatMultAcc            0      0.00%     66.92% # attempts to use FU when none available (Count)
system.cpu.statFuBusy::SimdFloatSqrt              100      0.00%     66.92% # attempts to use FU when none available (Count)
system.cpu.statFuBusy::SimdReduceAdd                0      0.00%     66.92% # attempts to use FU when none available (Count)
system.cpu.statFuBusy::SimdReduceAlu                0      0.00%     66.92% # attempts to use FU when none available (Count)
system.cpu.statFuBusy::SimdReduceCmp                0      0.00%     66.92% # attempts to use FU when none available (Count)
system.cpu.statFuBusy::SimdFloatReduceAdd            0      0.00%     66.92% # attempts to use FU when none available (Count)
system.cpu.statFuBusy::SimdFloatReduceCmp            0      0.00%     66.92% # attempts to use FU when none available (Count)
system.cpu.statFuBusy::SimdAes                      0      0.00%     66.92% # attempts to use FU when none available (Count)
system.cpu.statFuBusy::SimdAesMix                   0      0.00%     66.92% # attempts to use FU when none available (Count)
system.cpu.statFuBusy::SimdSha1Hash                 0      0.00%     66.92% # attempts to use FU when none available (Count)
system.cpu.statFuBusy::SimdSha1Hash2                0      0.00%     66.92% # attempts to use FU when none available (Count)
system.cpu.statFuBusy::SimdSha256Hash               0      0.00%     66.92% # attempts to use FU when none available (Count)
system.cpu.statFuBusy::SimdSha256Hash2              0      0.00%     66.92% # attempts to use FU when none available (Count)
system.cpu.statFuBusy::SimdShaSigma2                0      0.00%     66.92% # attempts to use FU when none available (Count)
system.cpu.statFuBusy::SimdShaSigma3                0      0.00%     66.92% # attempts to use FU when none available (Count)
system.cpu.statFuBusy::SimdPredAlu                  0      0.00%     66.92% # attempts to use FU when none available (Count)
system.cpu.statFuBusy::Matrix                       0      0.00%     66.92% # attempts to use FU when none available (Count)
system.cpu.statFuBusy::MatrixMov                    0      0.00%     66.92% # attempts to use FU when none available (Count)
system.cpu.statFuBusy::MatrixOP                     0      0.00%     66.92% # attempts to use FU when none available (Count)
system.cpu.statFuBusy::MemRead                7387172     17.92%     84.83% # attempts to use FU when none available (Count)
system.cpu.statFuBusy::MemWrite               2953052      7.16%     92.00% # attempts to use FU when none available (Count)
system.cpu.statFuBusy::FloatMemRead           3105488      7.53%     99.53% # attempts to use FU when none available (Count)
system.cpu.statFuBusy::FloatMemWrite           194631      0.47%    100.00% # attempts to use FU when none available (Count)
system.cpu.statFuBusy::IprAccess                    0      0.00%    100.00% # attempts to use FU when none available (Count)
system.cpu.statFuBusy::InstPrefetch                 0      0.00%    100.00% # attempts to use FU when none available (Count)
system.cpu.statFuBusy::SimdUnitStrideLoad            0      0.00%    100.00% # attempts to use FU when none available (Count)
system.cpu.statFuBusy::SimdUnitStrideStore            0      0.00%    100.00% # attempts to use FU when none available (Count)
system.cpu.statFuBusy::SimdUnitStrideMaskLoad            0      0.00%    100.00% # attempts to use FU when none available (Count)
system.cpu.statFuBusy::SimdUnitStrideMaskStore            0      0.00%    100.00% # attempts to use FU when none available (Count)
system.cpu.statFuBusy::SimdStridedLoad              0      0.00%    100.00% # attempts to use FU when none available (Count)
system.cpu.statFuBusy::SimdStridedStore             0      0.00%    100.00% # attempts to use FU when none available (Count)
system.cpu.statFuBusy::SimdIndexedLoad              0      0.00%    100.00% # attempts to use FU when none available (Count)
system.cpu.statFuBusy::SimdIndexedStore             0      0.00%    100.00% # attempts to use FU when none available (Count)
system.cpu.statFuBusy::SimdWholeRegisterLoad            0      0.00%    100.00% # attempts to use FU when none available (Count)
system.cpu.statFuBusy::SimdWholeRegisterStore            0      0.00%    100.00% # attempts to use FU when none available (Count)
system.cpu.statFuBusy::SimdUnitStrideFaultOnlyFirstLoad            0      0.00%    100.00% # attempts to use FU when none available (Count)
system.cpu.statFuBusy::SimdUnitStrideSegmentedLoad            0      0.00%    100.00% # attempts to use FU when none available (Count)
system.cpu.statFuBusy::SimdUnitStrideSegmentedStore            0      0.00%    100.00% # attempts to use FU when none available (Count)
system.cpu.statFuBusy::SimdExt                      0      0.00%    100.00% # attempts to use FU when none available (Count)
system.cpu.statFuBusy::SimdFloatExt                 0      0.00%    100.00% # attempts to use FU when none available (Count)
system.cpu.statFuBusy::SimdConfig                   0      0.00%    100.00% # attempts to use FU when none available (Count)
system.cpu.statIssuedInstType_0::No_OpClass      8481290      0.52%      0.52% # Number of instructions issued per FU type, per thread (Count)
system.cpu.statIssuedInstType_0::IntAlu    1082520571     66.29%     66.81% # Number of instructions issued per FU type, per thread (Count)
system.cpu.statIssuedInstType_0::IntMult      6189540      0.38%     67.19% # Number of instructions issued per FU type, per thread (Count)
system.cpu.statIssuedInstType_0::IntDiv       9070189      0.56%     67.74% # Number of instructions issued per FU type, per thread (Count)
system.cpu.statIssuedInstType_0::FloatAdd     54184366      3.32%     71.06% # Number of instructions issued per FU type, per thread (Count)
system.cpu.statIssuedInstType_0::FloatCmp            0      0.00%     71.06% # Number of instructions issued per FU type, per thread (Count)
system.cpu.statIssuedInstType_0::FloatCvt         1873      0.00%     71.06% # Number of instructions issued per FU type, per thread (Count)
system.cpu.statIssuedInstType_0::FloatMult            0      0.00%     71.06% # Number of instructions issued per FU type, per thread (Count)
system.cpu.statIssuedInstType_0::FloatMultAcc            0      0.00%     71.06% # Number of instructions issued per FU type, per thread (Count)
system.cpu.statIssuedInstType_0::FloatDiv            0      0.00%     71.06% # Number of instructions issued per FU type, per thread (Count)
system.cpu.statIssuedInstType_0::FloatMisc            0      0.00%     71.06% # Number of instructions issued per FU type, per thread (Count)
system.cpu.statIssuedInstType_0::FloatSqrt            0      0.00%     71.06% # Number of instructions issued per FU type, per thread (Count)
system.cpu.statIssuedInstType_0::SimdAdd         7789      0.00%     71.06% # Number of instructions issued per FU type, per thread (Count)
system.cpu.statIssuedInstType_0::SimdAddAcc            0      0.00%     71.06% # Number of instructions issued per FU type, per thread (Count)
system.cpu.statIssuedInstType_0::SimdAlu      2368195      0.15%     71.20% # Number of instructions issued per FU type, per thread (Count)
system.cpu.statIssuedInstType_0::SimdCmp           11      0.00%     71.20% # Number of instructions issued per FU type, per thread (Count)
system.cpu.statIssuedInstType_0::SimdCvt        82109      0.01%     71.21% # Number of instructions issued per FU type, per thread (Count)
system.cpu.statIssuedInstType_0::SimdMisc       278839      0.02%     71.23% # Number of instructions issued per FU type, per thread (Count)
system.cpu.statIssuedInstType_0::SimdMult            0      0.00%     71.23% # Number of instructions issued per FU type, per thread (Count)
system.cpu.statIssuedInstType_0::SimdMultAcc            0      0.00%     71.23% # Number of instructions issued per FU type, per thread (Count)
system.cpu.statIssuedInstType_0::SimdMatMultAcc            0      0.00%     71.23% # Number of instructions issued per FU type, per thread (Count)
system.cpu.statIssuedInstType_0::SimdShift         3839      0.00%     71.23% # Number of instructions issued per FU type, per thread (Count)
system.cpu.statIssuedInstType_0::SimdShiftAcc            0      0.00%     71.23% # Number of instructions issued per FU type, per thread (Count)
system.cpu.statIssuedInstType_0::SimdDiv            0      0.00%     71.23% # Number of instructions issued per FU type, per thread (Count)
system.cpu.statIssuedInstType_0::SimdSqrt            0      0.00%     71.23% # Number of instructions issued per FU type, per thread (Count)
system.cpu.statIssuedInstType_0::SimdFloatAdd     54764676      3.35%     74.58% # Number of instructions issued per FU type, per thread (Count)
system.cpu.statIssuedInstType_0::SimdFloatAlu            0      0.00%     74.58% # Number of instructions issued per FU type, per thread (Count)
system.cpu.statIssuedInstType_0::SimdFloatCmp            0      0.00%     74.58% # Number of instructions issued per FU type, per thread (Count)
system.cpu.statIssuedInstType_0::SimdFloatCvt      5976002      0.37%     74.95% # Number of instructions issued per FU type, per thread (Count)
system.cpu.statIssuedInstType_0::SimdFloatDiv      1592153      0.10%     75.04% # Number of instructions issued per FU type, per thread (Count)
system.cpu.statIssuedInstType_0::SimdFloatMisc            0      0.00%     75.04% # Number of instructions issued per FU type, per thread (Count)
system.cpu.statIssuedInstType_0::SimdFloatMult     52386468      3.21%     78.25% # Number of instructions issued per FU type, per thread (Count)
system.cpu.statIssuedInstType_0::SimdFloatMultAcc            0      0.00%     78.25% # Number of instructions issued per FU type, per thread (Count)
system.cpu.statIssuedInstType_0::SimdFloatMatMultAcc            0      0.00%     78.25% # Number of instructions issued per FU type, per thread (Count)
system.cpu.statIssuedInstType_0::SimdFloatSqrt       953283      0.06%     78.31% # Number of instructions issued per FU type, per thread (Count)
system.cpu.statIssuedInstType_0::SimdReduceAdd            0      0.00%     78.31% # Number of instructions issued per FU type, per thread (Count)
system.cpu.statIssuedInstType_0::SimdReduceAlu            0      0.00%     78.31% # Number of instructions issued per FU type, per thread (Count)
system.cpu.statIssuedInstType_0::SimdReduceCmp            0      0.00%     78.31% # Number of instructions issued per FU type, per thread (Count)
system.cpu.statIssuedInstType_0::SimdFloatReduceAdd            0      0.00%     78.31% # Number of instructions issued per FU type, per thread (Count)
system.cpu.statIssuedInstType_0::SimdFloatReduceCmp            0      0.00%     78.31% # Number of instructions issued per FU type, per thread (Count)
system.cpu.statIssuedInstType_0::SimdAes            0      0.00%     78.31% # Number of instructions issued per FU type, per thread (Count)
system.cpu.statIssuedInstType_0::SimdAesMix            0      0.00%     78.31% # Number of instructions issued per FU type, per thread (Count)
system.cpu.statIssuedInstType_0::SimdSha1Hash            0      0.00%     78.31% # Number of instructions issued per FU type, per thread (Count)
system.cpu.statIssuedInstType_0::SimdSha1Hash2            0      0.00%     78.31% # Number of instructions issued per FU type, per thread (Count)
system.cpu.statIssuedInstType_0::SimdSha256Hash            0      0.00%     78.31% # Number of instructions issued per FU type, per thread (Count)
system.cpu.statIssuedInstType_0::SimdSha256Hash2            0      0.00%     78.31% # Number of instructions issued per FU type, per thread (Count)
system.cpu.statIssuedInstType_0::SimdShaSigma2            0      0.00%     78.31% # Number of instructions issued per FU type, per thread (Count)
system.cpu.statIssuedInstType_0::SimdShaSigma3            0      0.00%     78.31% # Number of instructions issued per FU type, per thread (Count)
system.cpu.statIssuedInstType_0::SimdPredAlu            0      0.00%     78.31% # Number of instructions issued per FU type, per thread (Count)
system.cpu.statIssuedInstType_0::Matrix             0      0.00%     78.31% # Number of instructions issued per FU type, per thread (Count)
system.cpu.statIssuedInstType_0::MatrixMov            0      0.00%     78.31% # Number of instructions issued per FU type, per thread (Count)
system.cpu.statIssuedInstType_0::MatrixOP            0      0.00%     78.31% # Number of instructions issued per FU type, per thread (Count)
system.cpu.statIssuedInstType_0::MemRead    195158657     11.95%     90.26% # Number of instructions issued per FU type, per thread (Count)
system.cpu.statIssuedInstType_0::MemWrite     99230177      6.08%     96.34% # Number of instructions issued per FU type, per thread (Count)
system.cpu.statIssuedInstType_0::FloatMemRead     53917300      3.30%     99.64% # Number of instructions issued per FU type, per thread (Count)
system.cpu.statIssuedInstType_0::FloatMemWrite      5911020      0.36%    100.00% # Number of instructions issued per FU type, per thread (Count)
system.cpu.statIssuedInstType_0::IprAccess            0      0.00%    100.00% # Number of instructions issued per FU type, per thread (Count)
system.cpu.statIssuedInstType_0::InstPrefetch            0      0.00%    100.00% # Number of instructions issued per FU type, per thread (Count)
system.cpu.statIssuedInstType_0::SimdUnitStrideLoad            0      0.00%    100.00% # Number of instructions issued per FU type, per thread (Count)
system.cpu.statIssuedInstType_0::SimdUnitStrideStore            0      0.00%    100.00% # Number of instructions issued per FU type, per thread (Count)
system.cpu.statIssuedInstType_0::SimdUnitStrideMaskLoad            0      0.00%    100.00% # Number of instructions issued per FU type, per thread (Count)
system.cpu.statIssuedInstType_0::SimdUnitStrideMaskStore            0      0.00%    100.00% # Number of instructions issued per FU type, per thread (Count)
system.cpu.statIssuedInstType_0::SimdStridedLoad            0      0.00%    100.00% # Number of instructions issued per FU type, per thread (Count)
system.cpu.statIssuedInstType_0::SimdStridedStore            0      0.00%    100.00% # Number of instructions issued per FU type, per thread (Count)
system.cpu.statIssuedInstType_0::SimdIndexedLoad            0      0.00%    100.00% # Number of instructions issued per FU type, per thread (Count)
system.cpu.statIssuedInstType_0::SimdIndexedStore            0      0.00%    100.00% # Number of instructions issued per FU type, per thread (Count)
system.cpu.statIssuedInstType_0::SimdWholeRegisterLoad            0      0.00%    100.00% # Number of instructions issued per FU type, per thread (Count)
system.cpu.statIssuedInstType_0::SimdWholeRegisterStore            0      0.00%    100.00% # Number of instructions issued per FU type, per thread (Count)
system.cpu.statIssuedInstType_0::SimdUnitStrideFaultOnlyFirstLoad            0      0.00%    100.00% # Number of instructions issued per FU type, per thread (Count)
system.cpu.statIssuedInstType_0::SimdUnitStrideSegmentedLoad            0      0.00%    100.00% # Number of instructions issued per FU type, per thread (Count)
system.cpu.statIssuedInstType_0::SimdUnitStrideSegmentedStore            0      0.00%    100.00% # Number of instructions issued per FU type, per thread (Count)
system.cpu.statIssuedInstType_0::SimdExt            0      0.00%    100.00% # Number of instructions issued per FU type, per thread (Count)
system.cpu.statIssuedInstType_0::SimdFloatExt            0      0.00%    100.00% # Number of instructions issued per FU type, per thread (Count)
system.cpu.statIssuedInstType_0::SimdConfig            0      0.00%    100.00% # Number of instructions issued per FU type, per thread (Count)
system.cpu.statIssuedInstType_0::total     1633078347                       # Number of instructions issued per FU type, per thread (Count)
system.cpu.issueRate                         2.753645                       # Inst issue rate ((Count/Cycle))
system.cpu.fuBusy                            41231790                       # FU busy when requested (Count)
system.cpu.fuBusyRate                        0.025248                       # FU busy rate (busy events/executed inst) ((Count/Count))
system.cpu.intInstQueueReads               3315261061                       # Number of integer instruction queue reads (Count)
system.cpu.intInstQueueWrites              1884294996                       # Number of integer instruction queue writes (Count)
system.cpu.intInstQueueWakeupAccesses      1309811282                       # Number of integer instruction queue wakeup accesses (Count)
system.cpu.fpInstQueueReads                 587997716                       # Number of floating instruction queue reads (Count)
system.cpu.fpInstQueueWrites                498139888                       # Number of floating instruction queue writes (Count)
system.cpu.fpInstQueueWakeupAccesses        284262680                       # Number of floating instruction queue wakeup accesses (Count)
system.cpu.vecInstQueueReads                        0                       # Number of vector instruction queue reads (Count)
system.cpu.vecInstQueueWrites                       0                       # Number of vector instruction queue writes (Count)
system.cpu.vecInstQueueWakeupAccesses               0                       # Number of vector instruction queue wakeup accesses (Count)
system.cpu.intAluAccesses                  1369768393                       # Number of integer alu accesses (Count)
system.cpu.fpAluAccesses                    296060454                       # Number of floating point alu accesses (Count)
system.cpu.vecAluAccesses                           0                       # Number of vector alu accesses (Count)
system.cpu.numSquashedInsts                  14523681                       # Number of squashed instructions skipped in execute (Count)
system.cpu.numSwp                                   0                       # Number of swp insts executed (Count)
system.cpu.timesIdled                           85426                       # Number of times that the entire CPU went into an idle state and unscheduled itself (Count)
system.cpu.idleCycles                          431662                       # Total number of cycles that the CPU has spent unscheduled due to idling (Cycle)
system.cpu.MemDepUnit__0.insertedLoads      267574516                       # Number of loads inserted to the mem dependence unit. (Count)
system.cpu.MemDepUnit__0.insertedStores     113888588                       # Number of stores inserted to the mem dependence unit. (Count)
system.cpu.MemDepUnit__0.conflictingLoads     31971543                       # Number of conflicting loads. (Count)
system.cpu.MemDepUnit__0.conflictingStores     12097648                       # Number of conflicting stores. (Count)
system.cpu.MemDepUnit__1.insertedLoads              0                       # Number of loads inserted to the mem dependence unit. (Count)
system.cpu.MemDepUnit__1.insertedStores             0                       # Number of stores inserted to the mem dependence unit. (Count)
system.cpu.MemDepUnit__1.conflictingLoads            0                       # Number of conflicting loads. (Count)
system.cpu.MemDepUnit__1.conflictingStores            0                       # Number of conflicting stores. (Count)
system.cpu.MemDepUnit__2.insertedLoads              0                       # Number of loads inserted to the mem dependence unit. (Count)
system.cpu.MemDepUnit__2.insertedStores             0                       # Number of stores inserted to the mem dependence unit. (Count)
system.cpu.MemDepUnit__2.conflictingLoads            0                       # Number of conflicting loads. (Count)
system.cpu.MemDepUnit__2.conflictingStores            0                       # Number of conflicting stores. (Count)
system.cpu.MemDepUnit__3.insertedLoads              0                       # Number of loads inserted to the mem dependence unit. (Count)
system.cpu.MemDepUnit__3.insertedStores             0                       # Number of stores inserted to the mem dependence unit. (Count)
system.cpu.MemDepUnit__3.conflictingLoads            0                       # Number of conflicting loads. (Count)
system.cpu.MemDepUnit__3.conflictingStores            0                       # Number of conflicting stores. (Count)
system.cpu.branchPred.lookups_0::NoBranch         1948      0.00%      0.00% # Number of BP lookups (Count)
system.cpu.branchPred.lookups_0::Return      10548167      5.90%      5.90% # Number of BP lookups (Count)
system.cpu.branchPred.lookups_0::CallDirect     10373414      5.80%     11.71% # Number of BP lookups (Count)
system.cpu.branchPred.lookups_0::CallIndirect         1900      0.00%     11.71% # Number of BP lookups (Count)
system.cpu.branchPred.lookups_0::DirectCond    134419659     75.22%     86.92% # Number of BP lookups (Count)
system.cpu.branchPred.lookups_0::DirectUncond     22832307     12.78%     99.70% # Number of BP lookups (Count)
system.cpu.branchPred.lookups_0::IndirectCond            0      0.00%     99.70% # Number of BP lookups (Count)
system.cpu.branchPred.lookups_0::IndirectUncond       534853      0.30%    100.00% # Number of BP lookups (Count)
system.cpu.branchPred.lookups_0::total      178712248                       # Number of BP lookups (Count)
system.cpu.branchPred.squashes_0::NoBranch         1677      0.00%      0.00% # Number of branches that got squashed (completely removed) as an earlier branch was mispredicted. (Count)
system.cpu.branchPred.squashes_0::Return      4572873      6.41%      6.41% # Number of branches that got squashed (completely removed) as an earlier branch was mispredicted. (Count)
system.cpu.branchPred.squashes_0::CallDirect      4399143      6.16%     12.57% # Number of branches that got squashed (completely removed) as an earlier branch was mispredicted. (Count)
system.cpu.branchPred.squashes_0::CallIndirect          871      0.00%     12.57% # Number of branches that got squashed (completely removed) as an earlier branch was mispredicted. (Count)
system.cpu.branchPred.squashes_0::DirectCond     51050557     71.51%     84.08% # Number of branches that got squashed (completely removed) as an earlier branch was mispredicted. (Count)
system.cpu.branchPred.squashes_0::DirectUncond     11325069     15.86%     99.95% # Number of branches that got squashed (completely removed) as an earlier branch was mispredicted. (Count)
system.cpu.branchPred.squashes_0::IndirectCond            0      0.00%     99.95% # Number of branches that got squashed (completely removed) as an earlier branch was mispredicted. (Count)
system.cpu.branchPred.squashes_0::IndirectUncond        37048      0.05%    100.00% # Number of branches that got squashed (completely removed) as an earlier branch was mispredicted. (Count)
system.cpu.branchPred.squashes_0::total      71387238                       # Number of branches that got squashed (completely removed) as an earlier branch was mispredicted. (Count)
system.cpu.branchPred.corrected_0::NoBranch          441      0.01%      0.01% # Number of branches that got corrected but not yet commited. Branches get corrected by decode or after execute. Also a branch misprediction can be detected out-of-order. Therefore, a corrected branch might not end up beeing committed in case an even earlier branch was mispredicted (Count)
system.cpu.branchPred.corrected_0::Return        49441      0.78%      0.78% # Number of branches that got corrected but not yet commited. Branches get corrected by decode or after execute. Also a branch misprediction can be detected out-of-order. Therefore, a corrected branch might not end up beeing committed in case an even earlier branch was mispredicted (Count)
system.cpu.branchPred.corrected_0::CallDirect         3229      0.05%      0.83% # Number of branches that got corrected but not yet commited. Branches get corrected by decode or after execute. Also a branch misprediction can be detected out-of-order. Therefore, a corrected branch might not end up beeing committed in case an even earlier branch was mispredicted (Count)
system.cpu.branchPred.corrected_0::CallIndirect          337      0.01%      0.84% # Number of branches that got corrected but not yet commited. Branches get corrected by decode or after execute. Also a branch misprediction can be detected out-of-order. Therefore, a corrected branch might not end up beeing committed in case an even earlier branch was mispredicted (Count)
system.cpu.branchPred.corrected_0::DirectCond      6312224     99.08%     99.92% # Number of branches that got corrected but not yet commited. Branches get corrected by decode or after execute. Also a branch misprediction can be detected out-of-order. Therefore, a corrected branch might not end up beeing committed in case an even earlier branch was mispredicted (Count)
system.cpu.branchPred.corrected_0::DirectUncond         2958      0.05%     99.97% # Number of branches that got corrected but not yet commited. Branches get corrected by decode or after execute. Also a branch misprediction can be detected out-of-order. Therefore, a corrected branch might not end up beeing committed in case an even earlier branch was mispredicted (Count)
system.cpu.branchPred.corrected_0::IndirectCond            0      0.00%     99.97% # Number of branches that got corrected but not yet commited. Branches get corrected by decode or after execute. Also a branch misprediction can be detected out-of-order. Therefore, a corrected branch might not end up beeing committed in case an even earlier branch was mispredicted (Count)
system.cpu.branchPred.corrected_0::IndirectUncond         2039      0.03%    100.00% # Number of branches that got corrected but not yet commited. Branches get corrected by decode or after execute. Also a branch misprediction can be detected out-of-order. Therefore, a corrected branch might not end up beeing committed in case an even earlier branch was mispredicted (Count)
system.cpu.branchPred.corrected_0::total      6370669                       # Number of branches that got corrected but not yet commited. Branches get corrected by decode or after execute. Also a branch misprediction can be detected out-of-order. Therefore, a corrected branch might not end up beeing committed in case an even earlier branch was mispredicted (Count)
system.cpu.branchPred.earlyResteers_0::NoBranch            0                       # Number of branches that got redirected after decode. (Count)
system.cpu.branchPred.earlyResteers_0::Return            0                       # Number of branches that got redirected after decode. (Count)
system.cpu.branchPred.earlyResteers_0::CallDirect            0                       # Number of branches that got redirected after decode. (Count)
system.cpu.branchPred.earlyResteers_0::CallIndirect            0                       # Number of branches that got redirected after decode. (Count)
system.cpu.branchPred.earlyResteers_0::DirectCond            0                       # Number of branches that got redirected after decode. (Count)
system.cpu.branchPred.earlyResteers_0::DirectUncond            0                       # Number of branches that got redirected after decode. (Count)
system.cpu.branchPred.earlyResteers_0::IndirectCond            0                       # Number of branches that got redirected after decode. (Count)
system.cpu.branchPred.earlyResteers_0::IndirectUncond            0                       # Number of branches that got redirected after decode. (Count)
system.cpu.branchPred.earlyResteers_0::total            0                       # Number of branches that got redirected after decode. (Count)
system.cpu.branchPred.committed_0::NoBranch          271      0.00%      0.00% # Number of branches finally committed  (Count)
system.cpu.branchPred.committed_0::Return      5975293      5.57%      5.57% # Number of branches finally committed  (Count)
system.cpu.branchPred.committed_0::CallDirect      5974269      5.57%     11.13% # Number of branches finally committed  (Count)
system.cpu.branchPred.committed_0::CallIndirect         1029      0.00%     11.14% # Number of branches finally committed  (Count)
system.cpu.branchPred.committed_0::DirectCond     83369102     77.68%     88.81% # Number of branches finally committed  (Count)
system.cpu.branchPred.committed_0::DirectUncond     11507238     10.72%     99.54% # Number of branches finally committed  (Count)
system.cpu.branchPred.committed_0::IndirectCond            0      0.00%     99.54% # Number of branches finally committed  (Count)
system.cpu.branchPred.committed_0::IndirectUncond       497805      0.46%    100.00% # Number of branches finally committed  (Count)
system.cpu.branchPred.committed_0::total    107325007                       # Number of branches finally committed  (Count)
system.cpu.branchPred.mispredicted_0::NoBranch          271      0.00%      0.00% # Number of committed branches that were mispredicted. (Count)
system.cpu.branchPred.mispredicted_0::Return        43267      0.74%      0.74% # Number of committed branches that were mispredicted. (Count)
system.cpu.branchPred.mispredicted_0::CallDirect         2158      0.04%      0.78% # Number of committed branches that were mispredicted. (Count)
system.cpu.branchPred.mispredicted_0::CallIndirect          295      0.01%      0.78% # Number of committed branches that were mispredicted. (Count)
system.cpu.branchPred.mispredicted_0::DirectCond      5814269     99.14%     99.93% # Number of committed branches that were mispredicted. (Count)
system.cpu.branchPred.mispredicted_0::DirectUncond         2291      0.04%     99.97% # Number of committed branches that were mispredicted. (Count)
system.cpu.branchPred.mispredicted_0::IndirectCond            0      0.00%     99.97% # Number of committed branches that were mispredicted. (Count)
system.cpu.branchPred.mispredicted_0::IndirectUncond         1877      0.03%    100.00% # Number of committed branches that were mispredicted. (Count)
system.cpu.branchPred.mispredicted_0::total      5864428                       # Number of committed branches that were mispredicted. (Count)
system.cpu.branchPred.targetProvider_0::NoTarget     85797309     48.01%     48.01% # The component providing the target for taken branches (Count)
system.cpu.branchPred.targetProvider_0::BTB     81845483     45.80%     93.81% # The component providing the target for taken branches (Count)
system.cpu.branchPred.targetProvider_0::RAS     10548166      5.90%     99.71% # The component providing the target for taken branches (Count)
system.cpu.branchPred.targetProvider_0::Indirect       521290      0.29%    100.00% # The component providing the target for taken branches (Count)
system.cpu.branchPred.targetProvider_0::total    178712248                       # The component providing the target for taken branches (Count)
system.cpu.branchPred.targetWrong_0::NoBranch      3344306     54.51%     54.51% # Number of branches where the target was incorrect or not available at prediction time. (Count)
system.cpu.branchPred.targetWrong_0::Return      2741371     44.68%     99.19% # Number of branches where the target was incorrect or not available at prediction time. (Count)
system.cpu.branchPred.targetWrong_0::CallDirect        49441      0.81%    100.00% # Number of branches where the target was incorrect or not available at prediction time. (Count)
system.cpu.branchPred.targetWrong_0::CallIndirect          252      0.00%    100.00% # Number of branches where the target was incorrect or not available at prediction time. (Count)
system.cpu.branchPred.targetWrong_0::DirectCond            0      0.00%    100.00% # Number of branches where the target was incorrect or not available at prediction time. (Count)
system.cpu.branchPred.targetWrong_0::DirectUncond            0      0.00%    100.00% # Number of branches where the target was incorrect or not available at prediction time. (Count)
system.cpu.branchPred.targetWrong_0::IndirectCond            0      0.00%    100.00% # Number of branches where the target was incorrect or not available at prediction time. (Count)
system.cpu.branchPred.targetWrong_0::IndirectUncond            0      0.00%    100.00% # Number of branches where the target was incorrect or not available at prediction time. (Count)
system.cpu.branchPred.targetWrong_0::total      6135370                       # Number of branches where the target was incorrect or not available at prediction time. (Count)
system.cpu.branchPred.condPredicted         134421607                       # Number of conditional branches predicted (Count)
system.cpu.branchPred.condPredictedTaken     48693534                       # Number of conditional branches predicted as taken (Count)
system.cpu.branchPred.condIncorrect           6370669                       # Number of conditional branches incorrect (Count)
system.cpu.branchPred.predTakenBTBMiss           8326                       # Number of branches predicted taken but missed in BTB (Count)
system.cpu.branchPred.NotTakenMispredicted      3483116                       # Number branches predicted 'not taken' but turned out to be taken (Count)
system.cpu.branchPred.TakenMispredicted       2887553                       # Number branches predicted taken but are actually not taken (Count)
system.cpu.branchPred.BTBLookups            178712248                       # Number of BTB lookups (Count)
system.cpu.branchPred.BTBUpdates              3430858                       # Number of BTB updates (Count)
system.cpu.branchPred.BTBHits               140653312                       # Number of BTB hits (Count)
system.cpu.branchPred.BTBHitRatio            0.787038                       # BTB Hit Ratio (Ratio)
system.cpu.branchPred.BTBMispredicted           10038                       # Number BTB mispredictions. No target found or target wrong (Count)
system.cpu.branchPred.indirectLookups          536753                       # Number of indirect predictor lookups. (Count)
system.cpu.branchPred.indirectHits             521290                       # Number of indirect target hits. (Count)
system.cpu.branchPred.indirectMisses            15463                       # Number of indirect misses. (Count)
system.cpu.branchPred.indirectMispredicted            0                       # Number of mispredicted indirect branches. (Count)
system.cpu.branchPred.btb.lookups::NoBranch         1948      0.00%      0.00% # Number of BTB lookups (Count)
system.cpu.branchPred.btb.lookups::Return     10548167      5.90%      5.90% # Number of BTB lookups (Count)
system.cpu.branchPred.btb.lookups::CallDirect     10373414      5.80%     11.71% # Number of BTB lookups (Count)
system.cpu.branchPred.btb.lookups::CallIndirect         1900      0.00%     11.71% # Number of BTB lookups (Count)
system.cpu.branchPred.btb.lookups::DirectCond    134419659     75.22%     86.92% # Number of BTB lookups (Count)
system.cpu.branchPred.btb.lookups::DirectUncond     22832307     12.78%     99.70% # Number of BTB lookups (Count)
system.cpu.branchPred.btb.lookups::IndirectCond            0      0.00%     99.70% # Number of BTB lookups (Count)
system.cpu.branchPred.btb.lookups::IndirectUncond       534853      0.30%    100.00% # Number of BTB lookups (Count)
system.cpu.branchPred.btb.lookups::total    178712248                       # Number of BTB lookups (Count)
system.cpu.branchPred.btb.misses::NoBranch          422      0.00%      0.00% # Number of BTB misses (Count)
system.cpu.branchPred.btb.misses::Return     10546355     27.71%     27.71% # Number of BTB misses (Count)
system.cpu.branchPred.btb.misses::CallDirect         4352      0.01%     27.72% # Number of BTB misses (Count)
system.cpu.branchPred.btb.misses::CallIndirect         1900      0.00%     27.73% # Number of BTB misses (Count)
system.cpu.branchPred.btb.misses::DirectCond     26967169     70.86%     98.58% # Number of BTB misses (Count)
system.cpu.branchPred.btb.misses::DirectUncond         3885      0.01%     98.59% # Number of BTB misses (Count)
system.cpu.branchPred.btb.misses::IndirectCond            0      0.00%     98.59% # Number of BTB misses (Count)
system.cpu.branchPred.btb.misses::IndirectUncond       534853      1.41%    100.00% # Number of BTB misses (Count)
system.cpu.branchPred.btb.misses::total      38058936                       # Number of BTB misses (Count)
system.cpu.branchPred.btb.updates::NoBranch            0      0.00%      0.00% # Number of BTB updates (Count)
system.cpu.branchPred.btb.updates::Return            0      0.00%      0.00% # Number of BTB updates (Count)
system.cpu.branchPred.btb.updates::CallDirect         3229      0.09%      0.09% # Number of BTB updates (Count)
system.cpu.branchPred.btb.updates::CallIndirect            0      0.00%      0.09% # Number of BTB updates (Count)
system.cpu.branchPred.btb.updates::DirectCond      3424671     99.82%     99.91% # Number of BTB updates (Count)
system.cpu.branchPred.btb.updates::DirectUncond         2958      0.09%    100.00% # Number of BTB updates (Count)
system.cpu.branchPred.btb.updates::IndirectCond            0      0.00%    100.00% # Number of BTB updates (Count)
system.cpu.branchPred.btb.updates::IndirectUncond            0      0.00%    100.00% # Number of BTB updates (Count)
system.cpu.branchPred.btb.updates::total      3430858                       # Number of BTB updates (Count)
system.cpu.branchPred.btb.mispredict::NoBranch            0      0.00%      0.00% # Number of BTB mispredictions. No target found or target wrong. (Count)
system.cpu.branchPred.btb.mispredict::Return            0      0.00%      0.00% # Number of BTB mispredictions. No target found or target wrong. (Count)
system.cpu.branchPred.btb.mispredict::CallDirect         3229      0.09%      0.09% # Number of BTB mispredictions. No target found or target wrong. (Count)
system.cpu.branchPred.btb.mispredict::CallIndirect            0      0.00%      0.09% # Number of BTB mispredictions. No target found or target wrong. (Count)
system.cpu.branchPred.btb.mispredict::DirectCond      3424671     99.82%     99.91% # Number of BTB mispredictions. No target found or target wrong. (Count)
system.cpu.branchPred.btb.mispredict::DirectUncond         2958      0.09%    100.00% # Number of BTB mispredictions. No target found or target wrong. (Count)
system.cpu.branchPred.btb.mispredict::IndirectCond            0      0.00%    100.00% # Number of BTB mispredictions. No target found or target wrong. (Count)
system.cpu.branchPred.btb.mispredict::IndirectUncond            0      0.00%    100.00% # Number of BTB mispredictions. No target found or target wrong. (Count)
system.cpu.branchPred.btb.mispredict::total      3430858                       # Number of BTB mispredictions. No target found or target wrong. (Count)
system.cpu.branchPred.btb.power_state.pwrStateResidencyTicks::UNDEFINED 7907275499837                       # Cumulative time (in ticks) in various power states (Tick)
system.cpu.branchPred.indirectBranchPred.lookups       536753                       # Number of lookups (Count)
system.cpu.branchPred.indirectBranchPred.hits       521290                       # Number of hits of a tag (Count)
system.cpu.branchPred.indirectBranchPred.misses        15463                       # Number of misses (Count)
system.cpu.branchPred.indirectBranchPred.targetRecords         2376                       # Number of targets that where recorded/installed in the cache (Count)
system.cpu.branchPred.indirectBranchPred.indirectRecords       539129                       # Number of indirect branches/calls recorded in the indirect hist (Count)
system.cpu.branchPred.indirectBranchPred.speculativeOverflows            1                       # Number of times more than the allowed capacity for speculative branches/calls where in flight and destroy the path history (Count)
system.cpu.branchPred.ras.pushes             14948187                       # Number of times a PC was pushed onto the RAS (Count)
system.cpu.branchPred.ras.pops               14948181                       # Number of times a PC was poped from the RAS (Count)
system.cpu.branchPred.ras.squashes            8972887                       # Number of times the stack operation was squashed due to wrong speculation. (Count)
system.cpu.branchPred.ras.used                5975293                       # Number of times the RAS is the provider (Count)
system.cpu.branchPred.ras.correct             5932026                       # Number of times the RAS is the provider and the prediction is correct (Count)
system.cpu.branchPred.ras.incorrect             43267                       # Number of times the RAS is the provider and the prediction is wrong (Count)
system.cpu.commit.commitSquashedInsts       586441798                       # The number of squashed insts skipped by commit (Count)
system.cpu.commit.commitNonSpecStalls         6350220                       # The number of times commit has been forced to stall to communicate backwards (Count)
system.cpu.commit.branchMispredicts           6374707                       # The number of times a branch was mispredicted (Count)
system.cpu.commit.numCommittedDist::samples    514154453                       # Number of insts commited each cycle (Count)
system.cpu.commit.numCommittedDist::mean     2.351008                       # Number of insts commited each cycle (Count)
system.cpu.commit.numCommittedDist::stdev     3.040873                       # Number of insts commited each cycle (Count)
system.cpu.commit.numCommittedDist::underflows            0      0.00%      0.00% # Number of insts commited each cycle (Count)
system.cpu.commit.numCommittedDist::0       235603035     45.82%     45.82% # Number of insts commited each cycle (Count)
system.cpu.commit.numCommittedDist::1        76074943     14.80%     60.62% # Number of insts commited each cycle (Count)
system.cpu.commit.numCommittedDist::2        24665007      4.80%     65.42% # Number of insts commited each cycle (Count)
system.cpu.commit.numCommittedDist::3        42991540      8.36%     73.78% # Number of insts commited each cycle (Count)
system.cpu.commit.numCommittedDist::4        14437921      2.81%     76.59% # Number of insts commited each cycle (Count)
system.cpu.commit.numCommittedDist::5        12056010      2.34%     78.93% # Number of insts commited each cycle (Count)
system.cpu.commit.numCommittedDist::6        11417576      2.22%     81.15% # Number of insts commited each cycle (Count)
system.cpu.commit.numCommittedDist::7         7402948      1.44%     82.59% # Number of insts commited each cycle (Count)
system.cpu.commit.numCommittedDist::8        89505473     17.41%    100.00% # Number of insts commited each cycle (Count)
system.cpu.commit.numCommittedDist::overflows            0      0.00%    100.00% # Number of insts commited each cycle (Count)
system.cpu.commit.numCommittedDist::min_value            0                       # Number of insts commited each cycle (Count)
system.cpu.commit.numCommittedDist::max_value            8                       # Number of insts commited each cycle (Count)
system.cpu.commit.numCommittedDist::total    514154453                       # Number of insts commited each cycle (Count)
system.cpu.commit.amos                              0                       # Number of atomic instructions committed (Count)
system.cpu.commit.membars                     4232744                       # Number of memory barriers committed (Count)
system.cpu.commit.functionCalls               5975298                       # Number of function calls committed. (Count)
system.cpu.commit.committedInstType_0::No_OpClass      5620827      0.46%      0.46% # Class of committed instruction (Count)
system.cpu.commit.committedInstType_0::IntAlu    791299802     65.46%     65.93% # Class of committed instruction (Count)
system.cpu.commit.committedInstType_0::IntMult      4532851      0.37%     66.30% # Class of committed instruction (Count)
system.cpu.commit.committedInstType_0::IntDiv      8565664      0.71%     67.01% # Class of committed instruction (Count)
system.cpu.commit.committedInstType_0::FloatAdd     33239702      2.75%     69.76% # Class of committed instruction (Count)
system.cpu.commit.committedInstType_0::FloatCmp            0      0.00%     69.76% # Class of committed instruction (Count)
system.cpu.commit.committedInstType_0::FloatCvt         1808      0.00%     69.76% # Class of committed instruction (Count)
system.cpu.commit.committedInstType_0::FloatMult            0      0.00%     69.76% # Class of committed instruction (Count)
system.cpu.commit.committedInstType_0::FloatMultAcc            0      0.00%     69.76% # Class of committed instruction (Count)
system.cpu.commit.committedInstType_0::FloatDiv            0      0.00%     69.76% # Class of committed instruction (Count)
system.cpu.commit.committedInstType_0::FloatMisc            0      0.00%     69.76% # Class of committed instruction (Count)
system.cpu.commit.committedInstType_0::FloatSqrt            0      0.00%     69.76% # Class of committed instruction (Count)
system.cpu.commit.committedInstType_0::SimdAdd         7004      0.00%     69.76% # Class of committed instruction (Count)
system.cpu.commit.committedInstType_0::SimdAddAcc            0      0.00%     69.76% # Class of committed instruction (Count)
system.cpu.commit.committedInstType_0::SimdAlu      1958722      0.16%     69.92% # Class of committed instruction (Count)
system.cpu.commit.committedInstType_0::SimdCmp            6      0.00%     69.92% # Class of committed instruction (Count)
system.cpu.commit.committedInstType_0::SimdCvt        79724      0.01%     69.93% # Class of committed instruction (Count)
system.cpu.commit.committedInstType_0::SimdMisc       277470      0.02%     69.95% # Class of committed instruction (Count)
system.cpu.commit.committedInstType_0::SimdMult            0      0.00%     69.95% # Class of committed instruction (Count)
system.cpu.commit.committedInstType_0::SimdMultAcc            0      0.00%     69.95% # Class of committed instruction (Count)
system.cpu.commit.committedInstType_0::SimdMatMultAcc            0      0.00%     69.95% # Class of committed instruction (Count)
system.cpu.commit.committedInstType_0::SimdShift         1915      0.00%     69.95% # Class of committed instruction (Count)
system.cpu.commit.committedInstType_0::SimdShiftAcc            0      0.00%     69.95% # Class of committed instruction (Count)
system.cpu.commit.committedInstType_0::SimdDiv            0      0.00%     69.95% # Class of committed instruction (Count)
system.cpu.commit.committedInstType_0::SimdSqrt            0      0.00%     69.95% # Class of committed instruction (Count)
system.cpu.commit.committedInstType_0::SimdFloatAdd     51315450      4.25%     74.20% # Class of committed instruction (Count)
system.cpu.commit.committedInstType_0::SimdFloatAlu            0      0.00%     74.20% # Class of committed instruction (Count)
system.cpu.commit.committedInstType_0::SimdFloatCmp            0      0.00%     74.20% # Class of committed instruction (Count)
system.cpu.commit.committedInstType_0::SimdFloatCvt      5798127      0.48%     74.68% # Class of committed instruction (Count)
system.cpu.commit.committedInstType_0::SimdFloatDiv      1328449      0.11%     74.79% # Class of committed instruction (Count)
system.cpu.commit.committedInstType_0::SimdFloatMisc            0      0.00%     74.79% # Class of committed instruction (Count)
system.cpu.commit.committedInstType_0::SimdFloatMult     50384160      4.17%     78.96% # Class of committed instruction (Count)
system.cpu.commit.committedInstType_0::SimdFloatMultAcc            0      0.00%     78.96% # Class of committed instruction (Count)
system.cpu.commit.committedInstType_0::SimdFloatMatMultAcc            0      0.00%     78.96% # Class of committed instruction (Count)
system.cpu.commit.committedInstType_0::SimdFloatSqrt       934552      0.08%     79.03% # Class of committed instruction (Count)
system.cpu.commit.committedInstType_0::SimdReduceAdd            0      0.00%     79.03% # Class of committed instruction (Count)
system.cpu.commit.committedInstType_0::SimdReduceAlu            0      0.00%     79.03% # Class of committed instruction (Count)
system.cpu.commit.committedInstType_0::SimdReduceCmp            0      0.00%     79.03% # Class of committed instruction (Count)
system.cpu.commit.committedInstType_0::SimdFloatReduceAdd            0      0.00%     79.03% # Class of committed instruction (Count)
system.cpu.commit.committedInstType_0::SimdFloatReduceCmp            0      0.00%     79.03% # Class of committed instruction (Count)
system.cpu.commit.committedInstType_0::SimdAes            0      0.00%     79.03% # Class of committed instruction (Count)
system.cpu.commit.committedInstType_0::SimdAesMix            0      0.00%     79.03% # Class of committed instruction (Count)
system.cpu.commit.committedInstType_0::SimdSha1Hash            0      0.00%     79.03% # Class of committed instruction (Count)
system.cpu.commit.committedInstType_0::SimdSha1Hash2            0      0.00%     79.03% # Class of committed instruction (Count)
system.cpu.commit.committedInstType_0::SimdSha256Hash            0      0.00%     79.03% # Class of committed instruction (Count)
system.cpu.commit.committedInstType_0::SimdSha256Hash2            0      0.00%     79.03% # Class of committed instruction (Count)
system.cpu.commit.committedInstType_0::SimdShaSigma2            0      0.00%     79.03% # Class of committed instruction (Count)
system.cpu.commit.committedInstType_0::SimdShaSigma3            0      0.00%     79.03% # Class of committed instruction (Count)
system.cpu.commit.committedInstType_0::SimdPredAlu            0      0.00%     79.03% # Class of committed instruction (Count)
system.cpu.commit.committedInstType_0::Matrix            0      0.00%     79.03% # Class of committed instruction (Count)
system.cpu.commit.committedInstType_0::MatrixMov            0      0.00%     79.03% # Class of committed instruction (Count)
system.cpu.commit.committedInstType_0::MatrixOP            0      0.00%     79.03% # Class of committed instruction (Count)
system.cpu.commit.committedInstType_0::MemRead    139370698     11.53%     90.56% # Class of committed instruction (Count)
system.cpu.commit.committedInstType_0::MemWrite     69568746      5.76%     96.32% # Class of committed instruction (Count)
system.cpu.commit.committedInstType_0::FloatMemRead     39743299      3.29%     99.61% # Class of committed instruction (Count)
system.cpu.commit.committedInstType_0::FloatMemWrite      4752211      0.39%    100.00% # Class of committed instruction (Count)
system.cpu.commit.committedInstType_0::IprAccess            0      0.00%    100.00% # Class of committed instruction (Count)
system.cpu.commit.committedInstType_0::InstPrefetch            0      0.00%    100.00% # Class of committed instruction (Count)
system.cpu.commit.committedInstType_0::SimdUnitStrideLoad            0      0.00%    100.00% # Class of committed instruction (Count)
system.cpu.commit.committedInstType_0::SimdUnitStrideStore            0      0.00%    100.00% # Class of committed instruction (Count)
system.cpu.commit.committedInstType_0::SimdUnitStrideMaskLoad            0      0.00%    100.00% # Class of committed instruction (Count)
system.cpu.commit.committedInstType_0::SimdUnitStrideMaskStore            0      0.00%    100.00% # Class of committed instruction (Count)
system.cpu.commit.committedInstType_0::SimdStridedLoad            0      0.00%    100.00% # Class of committed instruction (Count)
system.cpu.commit.committedInstType_0::SimdStridedStore            0      0.00%    100.00% # Class of committed instruction (Count)
system.cpu.commit.committedInstType_0::SimdIndexedLoad            0      0.00%    100.00% # Class of committed instruction (Count)
system.cpu.commit.committedInstType_0::SimdIndexedStore            0      0.00%    100.00% # Class of committed instruction (Count)
system.cpu.commit.committedInstType_0::SimdWholeRegisterLoad            0      0.00%    100.00% # Class of committed instruction (Count)
system.cpu.commit.committedInstType_0::SimdWholeRegisterStore            0      0.00%    100.00% # Class of committed instruction (Count)
system.cpu.commit.committedInstType_0::SimdUnitStrideFaultOnlyFirstLoad            0      0.00%    100.00% # Class of committed instruction (Count)
system.cpu.commit.committedInstType_0::SimdUnitStrideSegmentedLoad            0      0.00%    100.00% # Class of committed instruction (Count)
system.cpu.commit.committedInstType_0::SimdUnitStrideSegmentedStore            0      0.00%    100.00% # Class of committed instruction (Count)
system.cpu.commit.committedInstType_0::SimdExt            0      0.00%    100.00% # Class of committed instruction (Count)
system.cpu.commit.committedInstType_0::SimdFloatExt            0      0.00%    100.00% # Class of committed instruction (Count)
system.cpu.commit.committedInstType_0::SimdConfig            0      0.00%    100.00% # Class of committed instruction (Count)
system.cpu.commit.committedInstType_0::total   1208781187                       # Class of committed instruction (Count)
system.cpu.commit.commitEligibleSamples      89505473                       # number cycles where commit BW limit reached (Cycle)
system.cpu.commitStats0.numInsts            721147210                       # Number of instructions committed (thread level) (Count)
system.cpu.commitStats0.numOps             1208781187                       # Number of ops (including micro ops) committed (thread level) (Count)
system.cpu.commitStats0.numInstsNotNOP      721147210                       # Number of instructions committed excluding NOPs or prefetches (Count)
system.cpu.commitStats0.numOpsNotNOP       1208781187                       # Number of Ops (including micro ops) Simulated (Count)
system.cpu.commitStats0.cpi                  0.822385                       # CPI: cycles per instruction (thread level) ((Cycle/Count))
system.cpu.commitStats0.ipc                  1.215976                       # IPC: instructions per cycle (thread level) ((Count/Cycle))
system.cpu.commitStats0.numMemRefs          253434954                       # Number of memory references committed (Count)
system.cpu.commitStats0.numFpInsts          235093778                       # Number of float instructions (Count)
system.cpu.commitStats0.numIntInsts        1006594886                       # Number of integer instructions (Count)
system.cpu.commitStats0.numLoadInsts        179113997                       # Number of load instructions (Count)
system.cpu.commitStats0.numStoreInsts        74320957                       # Number of store instructions (Count)
system.cpu.commitStats0.numVecInsts                 0                       # Number of vector instructions (Count)
system.cpu.commitStats0.committedInstType::No_OpClass      5620827      0.46%      0.46% # Class of committed instruction. (Count)
system.cpu.commitStats0.committedInstType::IntAlu    791299802     65.46%     65.93% # Class of committed instruction. (Count)
system.cpu.commitStats0.committedInstType::IntMult      4532851      0.37%     66.30% # Class of committed instruction. (Count)
system.cpu.commitStats0.committedInstType::IntDiv      8565664      0.71%     67.01% # Class of committed instruction. (Count)
system.cpu.commitStats0.committedInstType::FloatAdd     33239702      2.75%     69.76% # Class of committed instruction. (Count)
system.cpu.commitStats0.committedInstType::FloatCmp            0      0.00%     69.76% # Class of committed instruction. (Count)
system.cpu.commitStats0.committedInstType::FloatCvt         1808      0.00%     69.76% # Class of committed instruction. (Count)
system.cpu.commitStats0.committedInstType::FloatMult            0      0.00%     69.76% # Class of committed instruction. (Count)
system.cpu.commitStats0.committedInstType::FloatMultAcc            0      0.00%     69.76% # Class of committed instruction. (Count)
system.cpu.commitStats0.committedInstType::FloatDiv            0      0.00%     69.76% # Class of committed instruction. (Count)
system.cpu.commitStats0.committedInstType::FloatMisc            0      0.00%     69.76% # Class of committed instruction. (Count)
system.cpu.commitStats0.committedInstType::FloatSqrt            0      0.00%     69.76% # Class of committed instruction. (Count)
system.cpu.commitStats0.committedInstType::SimdAdd         7004      0.00%     69.76% # Class of committed instruction. (Count)
system.cpu.commitStats0.committedInstType::SimdAddAcc            0      0.00%     69.76% # Class of committed instruction. (Count)
system.cpu.commitStats0.committedInstType::SimdAlu      1958722      0.16%     69.92% # Class of committed instruction. (Count)
system.cpu.commitStats0.committedInstType::SimdCmp            6      0.00%     69.92% # Class of committed instruction. (Count)
system.cpu.commitStats0.committedInstType::SimdCvt        79724      0.01%     69.93% # Class of committed instruction. (Count)
system.cpu.commitStats0.committedInstType::SimdMisc       277470      0.02%     69.95% # Class of committed instruction. (Count)
system.cpu.commitStats0.committedInstType::SimdMult            0      0.00%     69.95% # Class of committed instruction. (Count)
system.cpu.commitStats0.committedInstType::SimdMultAcc            0      0.00%     69.95% # Class of committed instruction. (Count)
system.cpu.commitStats0.committedInstType::SimdMatMultAcc            0      0.00%     69.95% # Class of committed instruction. (Count)
system.cpu.commitStats0.committedInstType::SimdShift         1915      0.00%     69.95% # Class of committed instruction. (Count)
system.cpu.commitStats0.committedInstType::SimdShiftAcc            0      0.00%     69.95% # Class of committed instruction. (Count)
system.cpu.commitStats0.committedInstType::SimdDiv            0      0.00%     69.95% # Class of committed instruction. (Count)
system.cpu.commitStats0.committedInstType::SimdSqrt            0      0.00%     69.95% # Class of committed instruction. (Count)
system.cpu.commitStats0.committedInstType::SimdFloatAdd     51315450      4.25%     74.20% # Class of committed instruction. (Count)
system.cpu.commitStats0.committedInstType::SimdFloatAlu            0      0.00%     74.20% # Class of committed instruction. (Count)
system.cpu.commitStats0.committedInstType::SimdFloatCmp            0      0.00%     74.20% # Class of committed instruction. (Count)
system.cpu.commitStats0.committedInstType::SimdFloatCvt      5798127      0.48%     74.68% # Class of committed instruction. (Count)
system.cpu.commitStats0.committedInstType::SimdFloatDiv      1328449      0.11%     74.79% # Class of committed instruction. (Count)
system.cpu.commitStats0.committedInstType::SimdFloatMisc            0      0.00%     74.79% # Class of committed instruction. (Count)
system.cpu.commitStats0.committedInstType::SimdFloatMult     50384160      4.17%     78.96% # Class of committed instruction. (Count)
system.cpu.commitStats0.committedInstType::SimdFloatMultAcc            0      0.00%     78.96% # Class of committed instruction. (Count)
system.cpu.commitStats0.committedInstType::SimdFloatMatMultAcc            0      0.00%     78.96% # Class of committed instruction. (Count)
system.cpu.commitStats0.committedInstType::SimdFloatSqrt       934552      0.08%     79.03% # Class of committed instruction. (Count)
system.cpu.commitStats0.committedInstType::SimdReduceAdd            0      0.00%     79.03% # Class of committed instruction. (Count)
system.cpu.commitStats0.committedInstType::SimdReduceAlu            0      0.00%     79.03% # Class of committed instruction. (Count)
system.cpu.commitStats0.committedInstType::SimdReduceCmp            0      0.00%     79.03% # Class of committed instruction. (Count)
system.cpu.commitStats0.committedInstType::SimdFloatReduceAdd            0      0.00%     79.03% # Class of committed instruction. (Count)
system.cpu.commitStats0.committedInstType::SimdFloatReduceCmp            0      0.00%     79.03% # Class of committed instruction. (Count)
system.cpu.commitStats0.committedInstType::SimdAes            0      0.00%     79.03% # Class of committed instruction. (Count)
system.cpu.commitStats0.committedInstType::SimdAesMix            0      0.00%     79.03% # Class of committed instruction. (Count)
system.cpu.commitStats0.committedInstType::SimdSha1Hash            0      0.00%     79.03% # Class of committed instruction. (Count)
system.cpu.commitStats0.committedInstType::SimdSha1Hash2            0      0.00%     79.03% # Class of committed instruction. (Count)
system.cpu.commitStats0.committedInstType::SimdSha256Hash            0      0.00%     79.03% # Class of committed instruction. (Count)
system.cpu.commitStats0.committedInstType::SimdSha256Hash2            0      0.00%     79.03% # Class of committed instruction. (Count)
system.cpu.commitStats0.committedInstType::SimdShaSigma2            0      0.00%     79.03% # Class of committed instruction. (Count)
system.cpu.commitStats0.committedInstType::SimdShaSigma3            0      0.00%     79.03% # Class of committed instruction. (Count)
system.cpu.commitStats0.committedInstType::SimdPredAlu            0      0.00%     79.03% # Class of committed instruction. (Count)
system.cpu.commitStats0.committedInstType::Matrix            0      0.00%     79.03% # Class of committed instruction. (Count)
system.cpu.commitStats0.committedInstType::MatrixMov            0      0.00%     79.03% # Class of committed instruction. (Count)
system.cpu.commitStats0.committedInstType::MatrixOP            0      0.00%     79.03% # Class of committed instruction. (Count)
system.cpu.commitStats0.committedInstType::MemRead    139370698     11.53%     90.56% # Class of committed instruction. (Count)
system.cpu.commitStats0.committedInstType::MemWrite     69568746      5.76%     96.32% # Class of committed instruction. (Count)
system.cpu.commitStats0.committedInstType::FloatMemRead     39743299      3.29%     99.61% # Class of committed instruction. (Count)
system.cpu.commitStats0.committedInstType::FloatMemWrite      4752211      0.39%    100.00% # Class of committed instruction. (Count)
system.cpu.commitStats0.committedInstType::IprAccess            0      0.00%    100.00% # Class of committed instruction. (Count)
system.cpu.commitStats0.committedInstType::InstPrefetch            0      0.00%    100.00% # Class of committed instruction. (Count)
system.cpu.commitStats0.committedInstType::SimdUnitStrideLoad            0      0.00%    100.00% # Class of committed instruction. (Count)
system.cpu.commitStats0.committedInstType::SimdUnitStrideStore            0      0.00%    100.00% # Class of committed instruction. (Count)
system.cpu.commitStats0.committedInstType::SimdUnitStrideMaskLoad            0      0.00%    100.00% # Class of committed instruction. (Count)
system.cpu.commitStats0.committedInstType::SimdUnitStrideMaskStore            0      0.00%    100.00% # Class of committed instruction. (Count)
system.cpu.commitStats0.committedInstType::SimdStridedLoad            0      0.00%    100.00% # Class of committed instruction. (Count)
system.cpu.commitStats0.committedInstType::SimdStridedStore            0      0.00%    100.00% # Class of committed instruction. (Count)
system.cpu.commitStats0.committedInstType::SimdIndexedLoad            0      0.00%    100.00% # Class of committed instruction. (Count)
system.cpu.commitStats0.committedInstType::SimdIndexedStore            0      0.00%    100.00% # Class of committed instruction. (Count)
system.cpu.commitStats0.committedInstType::SimdWholeRegisterLoad            0      0.00%    100.00% # Class of committed instruction. (Count)
system.cpu.commitStats0.committedInstType::SimdWholeRegisterStore            0      0.00%    100.00% # Class of committed instruction. (Count)
system.cpu.commitStats0.committedInstType::SimdUnitStrideFaultOnlyFirstLoad            0      0.00%    100.00% # Class of committed instruction. (Count)
system.cpu.commitStats0.committedInstType::SimdUnitStrideSegmentedLoad            0      0.00%    100.00% # Class of committed instruction. (Count)
system.cpu.commitStats0.committedInstType::SimdUnitStrideSegmentedStore            0      0.00%    100.00% # Class of committed instruction. (Count)
system.cpu.commitStats0.committedInstType::SimdExt            0      0.00%    100.00% # Class of committed instruction. (Count)
system.cpu.commitStats0.committedInstType::SimdFloatExt            0      0.00%    100.00% # Class of committed instruction. (Count)
system.cpu.commitStats0.committedInstType::SimdConfig            0      0.00%    100.00% # Class of committed instruction. (Count)
system.cpu.commitStats0.committedInstType::total   1208781187                       # Class of committed instruction. (Count)
system.cpu.commitStats0.committedControl::IsControl    107325007                       # Class of control type instructions committed (Count)
system.cpu.commitStats0.committedControl::IsDirectControl    100850609                       # Class of control type instructions committed (Count)
system.cpu.commitStats0.committedControl::IsIndirectControl      6474127                       # Class of control type instructions committed (Count)
system.cpu.commitStats0.committedControl::IsCondControl     83369102                       # Class of control type instructions committed (Count)
system.cpu.commitStats0.committedControl::IsUncondControl     23955634                       # Class of control type instructions committed (Count)
system.cpu.commitStats0.committedControl::IsCall      5975298                       # Class of control type instructions committed (Count)
system.cpu.commitStats0.committedControl::IsReturn      5975293                       # Class of control type instructions committed (Count)
system.cpu.decode.idleCycles                 75967075                       # Number of cycles decode is idle (Cycle)
system.cpu.decode.blockedCycles             249613532                       # Number of cycles decode is blocked (Cycle)
system.cpu.decode.runCycles                 207633600                       # Number of cycles decode is running (Cycle)
system.cpu.decode.unblockCycles              52896137                       # Number of cycles decode is unblocking (Cycle)
system.cpu.decode.squashCycles                6518484                       # Number of cycles decode is squashing (Cycle)
system.cpu.decode.branchResolved             75436044                       # Number of times decode resolved a branch (Count)
system.cpu.decode.branchMispred                  6728                       # Number of times decode detected a branch misprediction (Count)
system.cpu.decode.decodedInsts             1890272641                       # Number of instructions handled by decode (Count)
system.cpu.decode.squashedInsts                 32462                       # Number of squashed instructions handled by decode (Count)
system.cpu.executeStats0.numInsts          1618554666                       # Number of executed instructions (Count)
system.cpu.executeStats0.numNop                     0                       # Number of nop insts executed (Count)
system.cpu.executeStats0.numBranches        137596941                       # Number of branches executed (Count)
system.cpu.executeStats0.numLoadInsts       245336388                       # Number of load instructions executed (Count)
system.cpu.executeStats0.numStoreInsts      103332163                       # Number of stores executed (Count)
system.cpu.executeStats0.instRate            2.729156                       # Inst execution rate ((Count/Cycle))
system.cpu.executeStats0.numCCRegReads      669264233                       # Number of times the CC registers were read (Count)
system.cpu.executeStats0.numCCRegWrites     477535660                       # Number of times the CC registers were written (Count)
system.cpu.executeStats0.numFpRegReads      468307975                       # Number of times the floating registers were read (Count)
system.cpu.executeStats0.numFpRegWrites     274299857                       # Number of times the floating registers were written (Count)
system.cpu.executeStats0.numIntRegReads    1661273012                       # Number of times the integer registers were read (Count)
system.cpu.executeStats0.numIntRegWrites    989162570                       # Number of times the integer registers were written (Count)
system.cpu.executeStats0.numMemRefs         348668551                       # Number of memory refs (Count)
system.cpu.executeStats0.numMiscRegReads    634237234                       # Number of times the Misc registers were read (Count)
system.cpu.executeStats0.numMiscRegWrites         1017                       # Number of times the Misc registers were written (Count)
system.cpu.executeStats0.numVecAluAccesses            0                       # Number of vector alu accesses (Count)
system.cpu.executeStats0.numDiscardedOps            0                       # Number of ops (including micro ops) which were discarded before commit (Count)
system.cpu.fetch.predictedBranches           92914939                       # Number of branches that fetch has predicted taken (Count)
system.cpu.fetch.cycles                     537849431                       # Number of cycles fetch has run and was not squashing or blocked (Cycle)
system.cpu.fetch.squashCycles                13050206                       # Number of cycles fetch has spent squashing (Cycle)
system.cpu.fetch.tlbCycles                         13                       # Number of cycles fetch has spent waiting for tlb (Cycle)
system.cpu.fetch.miscStallCycles                 9968                       # Number of cycles fetch has spent waiting on interrupts, or bad addresses, or out of MSHRs (Cycle)
system.cpu.fetch.pendingTrapStallCycles        115737                       # Number of stall cycles due to pending traps (Cycle)
[...]
system.mem_ctrl.dram.bwInstRead::cpu.inst    218100178                       # Instruction read bandwidth from this memory ((Byte/Second))
system.mem_ctrl.dram.bwInstRead::total      218100178                       # Instruction read bandwidth from this memory ((Byte/Second))
system.mem_ctrl.dram.bwWrite::writebacks     15447923                       # Write bandwidth from this memory ((Byte/Second))
system.mem_ctrl.dram.bwWrite::total          15447923                       # Write bandwidth from this memory ((Byte/Second))
system.mem_ctrl.dram.bwTotal::writebacks     15447923                       # Total bandwidth to/from this memory ((Byte/Second))
system.mem_ctrl.dram.bwTotal::cpu.inst      218100178                       # Total bandwidth to/from this memory ((Byte/Second))
system.mem_ctrl.dram.bwTotal::cpu.data       42248754                       # Total bandwidth to/from this memory ((Byte/Second))
system.mem_ctrl.dram.bwTotal::cpu.l1d.prefetcher     14263077                       # Total bandwidth to/from this memory ((Byte/Second))
system.mem_ctrl.dram.bwTotal::total         290059932                       # Total bandwidth to/from this memory ((Byte/Second))
system.mem_ctrl.dram.readBursts              45865814                       # Number of DRAM read bursts (Count)
system.mem_ctrl.dram.writeBursts               941313                       # Number of DRAM write bursts (Count)
system.mem_ctrl.dram.perBankRdBursts::0       3965257                       # Per bank write bursts (Count)
system.mem_ctrl.dram.perBankRdBursts::1       7596030                       # Per bank write bursts (Count)
system.mem_ctrl.dram.perBankRdBursts::2       9621002                       # Per bank write bursts (Count)
system.mem_ctrl.dram.perBankRdBursts::3        875061                       # Per bank write bursts (Count)
system.mem_ctrl.dram.perBankRdBursts::4       1327223                       # Per bank write bursts (Count)
system.mem_ctrl.dram.perBankRdBursts::5        567909                       # Per bank write bursts (Count)
system.mem_ctrl.dram.perBankRdBursts::6        472774                       # Per bank write bursts (Count)
system.mem_ctrl.dram.perBankRdBursts::7        889647                       # Per bank write bursts (Count)
system.mem_ctrl.dram.perBankRdBursts::8        701196                       # Per bank write bursts (Count)
system.mem_ctrl.dram.perBankRdBursts::9        708801                       # Per bank write bursts (Count)
system.mem_ctrl.dram.perBankRdBursts::10      2457006                       # Per bank write bursts (Count)
system.mem_ctrl.dram.perBankRdBursts::11      4686399                       # Per bank write bursts (Count)
system.mem_ctrl.dram.perBankRdBursts::12       741219                       # Per bank write bursts (Count)
system.mem_ctrl.dram.perBankRdBursts::13       421374                       # Per bank write bursts (Count)
system.mem_ctrl.dram.perBankRdBursts::14       375614                       # Per bank write bursts (Count)
system.mem_ctrl.dram.perBankRdBursts::15     10459302                       # Per bank write bursts (Count)
system.mem_ctrl.dram.perBankWrBursts::0         42935                       # Per bank write bursts (Count)
system.mem_ctrl.dram.perBankWrBursts::1         46400                       # Per bank write bursts (Count)
system.mem_ctrl.dram.perBankWrBursts::2         44177                       # Per bank write bursts (Count)
system.mem_ctrl.dram.perBankWrBursts::3         46340                       # Per bank write bursts (Count)
system.mem_ctrl.dram.perBankWrBursts::4         46355                       # Per bank write bursts (Count)
system.mem_ctrl.dram.perBankWrBursts::5         70386                       # Per bank write bursts (Count)
system.mem_ctrl.dram.perBankWrBursts::6         46460                       # Per bank write bursts (Count)
system.mem_ctrl.dram.perBankWrBursts::7         49630                       # Per bank write bursts (Count)
system.mem_ctrl.dram.perBankWrBursts::8        228678                       # Per bank write bursts (Count)
system.mem_ctrl.dram.perBankWrBursts::9         47418                       # Per bank write bursts (Count)
system.mem_ctrl.dram.perBankWrBursts::10        44329                       # Per bank write bursts (Count)
system.mem_ctrl.dram.perBankWrBursts::11        47191                       # Per bank write bursts (Count)
system.mem_ctrl.dram.perBankWrBursts::12        46761                       # Per bank write bursts (Count)
system.mem_ctrl.dram.perBankWrBursts::13        43219                       # Per bank write bursts (Count)
system.mem_ctrl.dram.perBankWrBursts::14        45654                       # Per bank write bursts (Count)
system.mem_ctrl.dram.perBankWrBursts::15        45380                       # Per bank write bursts (Count)
system.mem_ctrl.dram.totQLat             463483339205                       # Total ticks spent queuing (Tick)
system.mem_ctrl.dram.totBusLat           229329070000                       # Total ticks spent in databus transfers (Tick)
system.mem_ctrl.dram.totMemAccLat        1323467351705                       # Total ticks spent from burst creation until serviced by the DRAM (Tick)
system.mem_ctrl.dram.avgQLat                 10105.20                       # Average queueing delay per DRAM burst ((Tick/Count))
system.mem_ctrl.dram.avgBusLat                5000.00                       # Average bus latency per DRAM burst ((Tick/Count))
system.mem_ctrl.dram.avgMemAccLat            28855.20                       # Average memory access latency per DRAM burst ((Tick/Count))
system.mem_ctrl.dram.readRowHits             31943704                       # Number of row buffer hits during reads (Count)
system.mem_ctrl.dram.writeRowHits              854787                       # Number of row buffer hits during writes (Count)
system.mem_ctrl.dram.readRowHitRate             69.65                       # Row buffer hit rate for reads (Ratio)
system.mem_ctrl.dram.writeRowHitRate            90.81                       # Row buffer hit rate for writes (Ratio)
system.mem_ctrl.dram.bytesPerActivate::samples     14008635                       # Bytes accessed per row activation (Byte)
system.mem_ctrl.dram.bytesPerActivate::mean   213.843510                       # Bytes accessed per row activation (Byte)
system.mem_ctrl.dram.bytesPerActivate::gmean   145.906059                       # Bytes accessed per row activation (Byte)
system.mem_ctrl.dram.bytesPerActivate::stdev   221.881814                       # Bytes accessed per row activation (Byte)
system.mem_ctrl.dram.bytesPerActivate::0-127      5675711     40.52%     40.52% # Bytes accessed per row activation (Byte)
system.mem_ctrl.dram.bytesPerActivate::128-255      3611091     25.78%     66.29% # Bytes accessed per row activation (Byte)
system.mem_ctrl.dram.bytesPerActivate::256-383      2804171     20.02%     86.31% # Bytes accessed per row activation (Byte)
system.mem_ctrl.dram.bytesPerActivate::384-511       567517      4.05%     90.36% # Bytes accessed per row activation (Byte)
system.mem_ctrl.dram.bytesPerActivate::512-639       287479      2.05%     92.41% # Bytes accessed per row activation (Byte)
system.mem_ctrl.dram.bytesPerActivate::640-767       299558      2.14%     94.55% # Bytes accessed per row activation (Byte)
system.mem_ctrl.dram.bytesPerActivate::768-895       179773      1.28%     95.84% # Bytes accessed per row activation (Byte)
system.mem_ctrl.dram.bytesPerActivate::896-1023       202786      1.45%     97.28% # Bytes accessed per row activation (Byte)
system.mem_ctrl.dram.bytesPerActivate::1024-1151       380549      2.72%    100.00% # Bytes accessed per row activation (Byte)
system.mem_ctrl.dram.bytesPerActivate::total     14008635                       # Bytes accessed per row activation (Byte)
system.mem_ctrl.dram.dramBytesRead         2935412096                       # Total bytes read (Byte)
system.mem_ctrl.dram.dramBytesWritten        60244032                       # Total bytes written (Byte)
system.mem_ctrl.dram.avgRdBW               263.661913                       # Average DRAM read bandwidth in MiBytes/s ((Byte/Second))
system.mem_ctrl.dram.avgWrBW                 5.411185                       # Average DRAM write bandwidth in MiBytes/s ((Byte/Second))
system.mem_ctrl.dram.peakBW                  12800.00                       # Theoretical peak bandwidth in MiByte/s ((Byte/Second))
system.mem_ctrl.dram.busUtil                     2.10                       # Data bus utilization in percentage (Ratio)
system.mem_ctrl.dram.busUtilRead                 2.06                       # Data bus utilization in percentage for reads (Ratio)
system.mem_ctrl.dram.busUtilWrite                0.04                       # Data bus utilization in percentage for writes (Ratio)
system.mem_ctrl.dram.pageHitRate                70.07                       # Row buffer hit rate, read and write combined (Ratio)
system.mem_ctrl.dram.power_state.pwrStateResidencyTicks::UNDEFINED 11133242795305                       # Cumulative time (in ticks) in various power states (Tick)
system.mem_ctrl.dram.rank0.actEnergy      53961035520                       # Energy for activate commands per rank (pJ) (Joule)
system.mem_ctrl.dram.rank0.preEnergy      28680966765                       # Energy for precharge commands per rank (pJ) (Joule)
system.mem_ctrl.dram.rank0.readEnergy    180748407420                       # Energy for read commands per rank (pJ) (Joule)
system.mem_ctrl.dram.rank0.writeEnergy     2049805260                       # Energy for write commands per rank (pJ) (Joule)
system.mem_ctrl.dram.rank0.refreshEnergy 878848535760.000122                       # Energy for refresh commands per rank (pJ) (Joule)
system.mem_ctrl.dram.rank0.actBackEnergy 4713237954690                       # Energy for active background per rank (pJ) (Joule)
system.mem_ctrl.dram.rank0.preBackEnergy 306122745600                       # Energy for precharge background per rank (pJ) (Joule)
system.mem_ctrl.dram.rank0.actPowerDownEnergy            0                       # Energy for active power-down per rank (pJ) (Joule)
system.mem_ctrl.dram.rank0.prePowerDownEnergy            0                       # Energy for precharge power-down per rank (pJ) (Joule)
system.mem_ctrl.dram.rank0.selfRefreshEnergy            0                       # Energy for self refresh per rank (pJ) (Joule)
system.mem_ctrl.dram.rank0.totalEnergy   6163649451015                       # Total energy per rank (pJ) (Joule)
system.mem_ctrl.dram.rank0.averagePower    553.625710                       # Core power per rank (mW) (Watt)
system.mem_ctrl.dram.rank0.totalIdleTime            0                       # Total Idle time Per DRAM Rank (Tick)
system.mem_ctrl.dram.rank0.pwrStateTime::IDLE 757037875406                       # Time in different power states (Tick)
system.mem_ctrl.dram.rank0.pwrStateTime::REF 371763340000                       # Time in different power states (Tick)
system.mem_ctrl.dram.rank0.pwrStateTime::SREF            0                       # Time in different power states (Tick)
system.mem_ctrl.dram.rank0.pwrStateTime::PRE_PDN            0                       # Time in different power states (Tick)
system.mem_ctrl.dram.rank0.pwrStateTime::ACT 10004441579899                       # Time in different power states (Tick)
system.mem_ctrl.dram.rank0.pwrStateTime::ACT_PDN            0                       # Time in different power states (Tick)
system.mem_ctrl.dram.rank1.actEnergy      46060625520                       # Energy for activate commands per rank (pJ) (Joule)
system.mem_ctrl.dram.rank1.preEnergy      24481803060                       # Energy for precharge commands per rank (pJ) (Joule)
system.mem_ctrl.dram.rank1.readEnergy    146733504540                       # Energy for read commands per rank (pJ) (Joule)
system.mem_ctrl.dram.rank1.writeEnergy     2863848600                       # Energy for write commands per rank (pJ) (Joule)
system.mem_ctrl.dram.rank1.refreshEnergy 878848535760.000122                       # Energy for refresh commands per rank (pJ) (Joule)
system.mem_ctrl.dram.rank1.actBackEnergy 4358491375290                       # Energy for active background per rank (pJ) (Joule)
system.mem_ctrl.dram.rank1.preBackEnergy 604856707200                       # Energy for precharge background per rank (pJ) (Joule)
system.mem_ctrl.dram.rank1.actPowerDownEnergy            0                       # Energy for active power-down per rank (pJ) (Joule)
system.mem_ctrl.dram.rank1.prePowerDownEnergy            0                       # Energy for precharge power-down per rank (pJ) (Joule)
system.mem_ctrl.dram.rank1.selfRefreshEnergy            0                       # Energy for self refresh per rank (pJ) (Joule)
system.mem_ctrl.dram.rank1.totalEnergy   6062336399970                       # Total energy per rank (pJ) (Joule)
system.mem_ctrl.dram.rank1.averagePower    544.525662                       # Core power per rank (mW) (Watt)
system.mem_ctrl.dram.rank1.totalIdleTime            0                       # Total Idle time Per DRAM Rank (Tick)
system.mem_ctrl.dram.rank1.pwrStateTime::IDLE 1534118873150                       # Time in different power states (Tick)
system.mem_ctrl.dram.rank1.pwrStateTime::REF 371763340000                       # Time in different power states (Tick)
system.mem_ctrl.dram.rank1.pwrStateTime::SREF            0                       # Time in different power states (Tick)
system.mem_ctrl.dram.rank1.pwrStateTime::PRE_PDN            0                       # Time in different power states (Tick)
system.mem_ctrl.dram.rank1.pwrStateTime::ACT 9227360582155                       # Time in different power states (Tick)
system.mem_ctrl.dram.rank1.pwrStateTime::ACT_PDN            0                       # Time in different power states (Tick)
system.mem_ctrl.power_state.pwrStateResidencyTicks::UNDEFINED 11133242795305                       # Cumulative time (in ticks) in various power states (Tick)
system.membus.transDist::ReadResp            46225914                       # Transaction distribution (Count)
system.membus.transDist::WritebackDirty       2687273                       # Transaction distribution (Count)
system.membus.transDist::CleanEvict          45083391                       # Transaction distribution (Count)
system.membus.transDist::UpgradeReq                 2                       # Transaction distribution (Count)
system.membus.transDist::ReadExReq            1544750                       # Transaction distribution (Count)
system.membus.transDist::ReadExResp           1544750                       # Transaction distribution (Count)
system.membus.transDist::ReadSharedReq       46225913                       # Transaction distribution (Count)
system.membus.pktCount_system.cpu.l1d.mem_side_port::system.mem_ctrl.port     29491874                       # Packet count per connected requestor and responder (Count)
system.membus.pktCount_system.cpu.l1d.mem_side_port::total     29491874                       # Packet count per connected requestor and responder (Count)
system.membus.pktCount_system.cpu.l1i.mem_side_port::system.mem_ctrl.port    113820115                       # Packet count per connected requestor and responder (Count)
system.membus.pktCount_system.cpu.l1i.mem_side_port::total    113820115                       # Packet count per connected requestor and responder (Count)
system.membus.pktCount::total               143311989                       # Packet count per connected requestor and responder (Count)
system.membus.pktSize_system.cpu.l1d.mem_side_port::system.mem_ctrl.port    801145408                       # Cumulative packet size per connected requestor and responder (Byte)
system.membus.pktSize_system.cpu.l1d.mem_side_port::total    801145408                       # Cumulative packet size per connected requestor and responder (Byte)
system.membus.pktSize_system.cpu.l1i.mem_side_port::system.mem_ctrl.port   2428162304                       # Cumulative packet size per connected requestor and responder (Byte)
system.membus.pktSize_system.cpu.l1i.mem_side_port::total   2428162304                       # Cumulative packet size per connected requestor and responder (Byte)
system.membus.pktSize::total               3229307712                       # Cumulative packet size per connected requestor and responder (Byte)
system.membus.snoops                                4                       # Total snoops (Count)
system.membus.snoopTraffic                        256                       # Total snoop traffic (Byte)
system.membus.snoopFanout::samples           47770665                       # Request fanout histogram (Count)
system.membus.snoopFanout::mean              0.004138                       # Request fanout histogram (Count)
system.membus.snoopFanout::stdev             0.064197                       # Request fanout histogram (Count)
system.membus.snoopFanout::underflows               0      0.00%      0.00% # Request fanout histogram (Count)
system.membus.snoopFanout::0                 47572974     99.59%     99.59% # Request fanout histogram (Count)
system.membus.snoopFanout::1                   197691      0.41%    100.00% # Request fanout histogram (Count)
system.membus.snoopFanout::2                        0      0.00%    100.00% # Request fanout histogram (Count)
system.membus.snoopFanout::overflows                0      0.00%    100.00% # Request fanout histogram (Count)
system.membus.snoopFanout::min_value                0                       # Request fanout histogram (Count)
system.membus.snoopFanout::max_value                1                       # Request fanout histogram (Count)
system.membus.snoopFanout::total             47770665                       # Request fanout histogram (Count)
system.membus.power_state.pwrStateResidencyTicks::UNDEFINED 11133242795305                       # Cumulative time (in ticks) in various power states (Tick)
system.membus.reqLayer2.occupancy        1429169773850                       # Layer occupancy (ticks) (Tick)
system.membus.reqLayer2.utilization               0.1                       # Layer utilization (Ratio)
system.membus.respLayer2.occupancy       668236782332                       # Layer occupancy (ticks) (Tick)
system.membus.respLayer2.utilization              0.1                       # Layer utilization (Ratio)
system.membus.respLayer3.occupancy       2581878186375                       # Layer occupancy (ticks) (Tick)
system.membus.respLayer3.utilization              0.2                       # Layer utilization (Ratio)
system.membus.snoop_filter.totRequests       95541329                       # Total number of requests made to the snoop filter. (Count)
system.membus.snoop_filter.hitSingleRequests     47770663                       # Number of requests hitting in the snoop filter with a single holder of the requested data. (Count)
system.membus.snoop_filter.hitMultiRequests       197694                       # Number of requests hitting in the snoop filter with multiple (>1) holders of the requested data. (Count)
system.membus.snoop_filter.totSnoops                0                       # Total number of snoops made to the snoop filter. (Count)
system.membus.snoop_filter.hitSingleSnoops            0                       # Number of snoops hitting in the snoop filter with a single holder of the requested data. (Count)
system.membus.snoop_filter.hitMultiSnoops            0                       # Number of snoops hitting in the snoop filter with multiple (>1) holders of the requested data. (Count)
system.workload.inst.arm                            0                       # number of arm instructions executed (Count)
system.workload.inst.quiesce                        0                       # number of quiesce instructions executed (Count)

---------- End Simulation Statistics   ----------
