
---------- Begin Simulation Statistics ----------
simSeconds                                   1.290929                       # Number of seconds simulated (Second)
simTicks                                 1290928859305                       # Number of ticks simulated (Tick)
finalTick                                1290928859305                       # Number of ticks from beginning of simulation (restored from checkpoints and never reset) (Tick)
simFreq                                  1000000000000                       # The number of ticks per simulated second ((Tick/Second))
hostSeconds                                     57.43                       # Real time elapsed on the host (Second)
hostTickRate                              22476424949                       # The number of ticks simulated per host second (ticks/s) ((Tick/Second))
hostMemory                                    8616204                       # Number of bytes of host memory used (Byte)
simInsts                                     41576009                       # Number of instructions simulated (Count)
simOps                                       75115453                       # Number of ops (including micro ops) simulated (Count)
hostInstRate                                   723880                       # Simulator instruction rate (inst/s) ((Count/Second))
hostOpRate                                    1307836                       # Simulator op (including micro ops) rate (op/s) ((Count/Second))
system.clk_domain.clock                         13333                       # Clock period in ticks (Tick)
system.clk_domain.voltage_domain.voltage            1                       # Voltage in Volts (Volt)
system.cpu.numCycles                         96822085                       # Number of cpu cycles simulated (Cycle)
system.cpu.cpi                               2.328774                       # CPI: cycles per instruction (core level) ((Cycle/Count))
system.cpu.ipc                               0.429411                       # IPC: instructions per cycle (core level) ((Count/Cycle))
system.cpu.numWorkItemsStarted                      0                       # Number of work items this cpu started (Count)
system.cpu.numWorkItemsCompleted                    0                       # Number of work items this cpu completed (Count)
system.cpu.commitStats0.numInsts             41576426                       # Number of instructions committed (thread level) (Count)
system.cpu.commitStats0.numOps               75116131                       # Number of ops (including micro ops) committed (thread level) (Count)
system.cpu.commitStats0.numInstsNotNOP              0                       # Number of instructions committed excluding NOPs or prefetches (Count)
system.cpu.commitStats0.numOpsNotNOP                0                       # Number of Ops (including micro ops) Simulated (Count)
system.cpu.commitStats0.cpi                  2.328774                       # CPI: cycles per instruction (thread level) ((Cycle/Count))
system.cpu.commitStats0.ipc                  0.429411                       # IPC: instructions per cycle (thread level) ((Count/Cycle))
system.cpu.commitStats0.numMemRefs                  0                       # Number of memory references committed (Count)
system.cpu.commitStats0.numFpInsts            2444102                       # Number of float instructions (Count)
system.cpu.commitStats0.numIntInsts          73378146                       # Number of integer instructions (Count)
system.cpu.commitStats0.numLoadInsts         10471264                       # Number of load instructions (Count)
system.cpu.commitStats0.numStoreInsts         5987318                       # Number of store instructions (Count)
system.cpu.commitStats0.numVecInsts                 0                       # Number of vector instructions (Count)
system.cpu.commitStats0.committedInstType::No_OpClass       609185      0.81%      0.81% # Class of committed instruction. (Count)
system.cpu.commitStats0.committedInstType::IntAlu     55343593     73.68%     74.49% # Class of committed instruction. (Count)
system.cpu.commitStats0.committedInstType::IntMult          125      0.00%     74.49% # Class of committed instruction. (Count)
system.cpu.commitStats0.committedInstType::IntDiv      1895879      2.52%     77.01% # Class of committed instruction. (Count)
system.cpu.commitStats0.committedInstType::FloatAdd       208422      0.28%     77.29% # Class of committed instruction. (Count)
system.cpu.commitStats0.committedInstType::FloatCmp            0      0.00%     77.29% # Class of committed instruction. (Count)
system.cpu.commitStats0.committedInstType::FloatCvt         1264      0.00%     77.29% # Class of committed instruction. (Count)
system.cpu.commitStats0.committedInstType::FloatMult            0      0.00%     77.29% # Class of committed instruction. (Count)
system.cpu.commitStats0.committedInstType::FloatMultAcc            0      0.00%     77.29% # Class of committed instruction. (Count)
system.cpu.commitStats0.committedInstType::FloatDiv            0      0.00%     77.29% # Class of committed instruction. (Count)
system.cpu.commitStats0.committedInstType::FloatMisc            0      0.00%     77.29% # Class of committed instruction. (Count)
system.cpu.commitStats0.committedInstType::FloatSqrt            0      0.00%     77.29% # Class of committed instruction. (Count)
system.cpu.commitStats0.committedInstType::SimdAdd         6580      0.01%     77.30% # Class of committed instruction. (Count)
system.cpu.commitStats0.committedInstType::SimdAddAcc            0      0.00%     77.30% # Class of committed instruction. (Count)
system.cpu.commitStats0.committedInstType::SimdAlu       309341      0.41%     77.71% # Class of committed instruction. (Count)
system.cpu.commitStats0.committedInstType::SimdCmp           36      0.00%     77.71% # Class of committed instruction. (Count)
system.cpu.commitStats0.committedInstType::SimdCvt        13736      0.02%     77.73% # Class of committed instruction. (Count)
system.cpu.commitStats0.committedInstType::SimdMisc       267137      0.36%     78.09% # Class of committed instruction. (Count)
system.cpu.commitStats0.committedInstType::SimdMult            0      0.00%     78.09% # Class of committed instruction. (Count)
system.cpu.commitStats0.committedInstType::SimdMultAcc            0      0.00%     78.09% # Class of committed instruction. (Count)
system.cpu.commitStats0.committedInstType::SimdMatMultAcc            0      0.00%     78.09% # Class of committed instruction. (Count)
system.cpu.commitStats0.committedInstType::SimdShift         2065      0.00%     78.09% # Class of committed instruction. (Count)
system.cpu.commitStats0.committedInstType::SimdShiftAcc            0      0.00%     78.09% # Class of committed instruction. (Count)
system.cpu.commitStats0.committedInstType::SimdDiv            0      0.00%     78.09% # Class of committed instruction. (Count)
system.cpu.commitStats0.committedInstType::SimdSqrt            0      0.00%     78.09% # Class of committed instruction. (Count)
system.cpu.commitStats0.committedInstType::SimdFloatAdd           27      0.00%     78.09% # Class of committed instruction. (Count)
system.cpu.commitStats0.committedInstType::SimdFloatAlu            0      0.00%     78.09% # Class of committed instruction. (Count)
system.cpu.commitStats0.committedInstType::SimdFloatCmp            0      0.00%     78.09% # Class of committed instruction. (Count)
system.cpu.commitStats0.committedInstType::SimdFloatCvt          132      0.00%     78.09% # Class of committed instruction. (Count)
system.cpu.commitStats0.committedInstType::SimdFloatDiv           14      0.00%     78.09% # Class of committed instruction. (Count)
system.cpu.commitStats0.committedInstType::SimdFloatMisc            0      0.00%     78.09% # Class of committed instruction. (Count)
system.cpu.commitStats0.committedInstType::SimdFloatMult           13      0.00%     78.09% # Class of committed instruction. (Count)
system.cpu.commitStats0.committedInstType::SimdFloatMultAcc            0      0.00%     78.09% # Class of committed instruction. (Count)
system.cpu.commitStats0.committedInstType::SimdFloatMatMultAcc            0      0.00%     78.09% # Class of committed instruction. (Count)
system.cpu.commitStats0.committedInstType::SimdFloatSqrt            0      0.00%     78.09% # Class of committed instruction. (Count)
system.cpu.commitStats0.committedInstType::SimdReduceAdd            0      0.00%     78.09% # Class of committed instruction. (Count)
system.cpu.commitStats0.committedInstType::SimdReduceAlu            0      0.00%     78.09% # Class of committed instruction. (Count)
system.cpu.commitStats0.committedInstType::SimdReduceCmp            0      0.00%     78.09% # Class of committed instruction. (Count)
system.cpu.commitStats0.committedInstType::SimdFloatReduceAdd            0      0.00%     78.09% # Class of committed instruction. (Count)
system.cpu.commitStats0.committedInstType::SimdFloatReduceCmp            0      0.00%     78.09% # Class of committed instruction. (Count)
system.cpu.commitStats0.committedInstType::SimdAes            0      0.00%     78.09% # Class of committed instruction. (Count)
system.cpu.commitStats0.committedInstType::SimdAesMix            0      0.00%     78.09% # Class of committed instruction. (Count)
system.cpu.commitStats0.committedInstType::SimdSha1Hash            0      0.00%     78.09% # Class of committed instruction. (Count)
system.cpu.commitStats0.committedInstType::SimdSha1Hash2            0      0.00%     78.09% # Class of committed instruction. (Count)
system.cpu.commitStats0.committedInstType::SimdSha256Hash            0      0.00%     78.09% # Class of committed instruction. (Count)
system.cpu.commitStats0.committedInstType::SimdSha256Hash2            0      0.00%     78.09% # Class of committed instruction. (Count)
system.cpu.commitStats0.committedInstType::SimdShaSigma2            0      0.00%     78.09% # Class of committed instruction. (Count)
system.cpu.commitStats0.committedInstType::SimdShaSigma3            0      0.00%     78.09% # Class of committed instruction. (Count)
system.cpu.commitStats0.committedInstType::SimdPredAlu            0      0.00%     78.09% # Class of committed instruction. (Count)
system.cpu.commitStats0.committedInstType::Matrix            0      0.00%     78.09% # Class of committed instruction. (Count)
system.cpu.commitStats0.committedInstType::MatrixMov            0      0.00%     78.09% # Class of committed instruction. (Count)
system.cpu.commitStats0.committedInstType::MatrixOP            0      0.00%     78.09% # Class of committed instruction. (Count)
system.cpu.commitStats0.committedInstType::MemRead     10264240     13.66%     91.75% # Class of committed instruction. (Count)
system.cpu.commitStats0.committedInstType::MemWrite      4868203      6.48%     98.23% # Class of committed instruction. (Count)
system.cpu.commitStats0.committedInstType::FloatMemRead       207024      0.28%     98.51% # Class of committed instruction. (Count)
system.cpu.commitStats0.committedInstType::FloatMemWrite      1119115      1.49%    100.00% # Class of committed instruction. (Count)
system.cpu.commitStats0.committedInstType::IprAccess            0      0.00%    100.00% # Class of committed instruction. (Count)
system.cpu.commitStats0.committedInstType::InstPrefetch            0      0.00%    100.00% # Class of committed instruction. (Count)
system.cpu.commitStats0.committedInstType::SimdUnitStrideLoad            0      0.00%    100.00% # Class of committed instruction. (Count)
system.cpu.commitStats0.committedInstType::SimdUnitStrideStore            0      0.00%    100.00% # Class of committed instruction. (Count)
system.cpu.commitStats0.committedInstType::SimdUnitStrideMaskLoad            0      0.00%    100.00% # Class of committed instruction. (Count)
system.cpu.commitStats0.committedInstType::SimdUnitStrideMaskStore            0      0.00%    100.00% # Class of committed instruction. (Count)
system.cpu.commitStats0.committedInstType::SimdStridedLoad            0      0.00%    100.00% # Class of committed instruction. (Count)
system.cpu.commitStats0.committedInstType::SimdStridedStore            0      0.00%    100.00% # Class of committed instruction. (Count)
system.cpu.commitStats0.committedInstType::SimdIndexedLoad            0      0.00%    100.00% # Class of committed instruction. (Count)
system.cpu.commitStats0.committedInstType::SimdIndexedStore            0      0.00%    100.00% # Class of committed instruction. (Count)
system.cpu.commitStats0.committedInstType::SimdWholeRegisterLoad            0      0.00%    100.00% # Class of committed instruction. (Count)
system.cpu.commitStats0.committedInstType::SimdWholeRegisterStore            0      0.00%    100.00% # Class of committed instruction. (Count)
system.cpu.commitStats0.committedInstType::SimdUnitStrideFaultOnlyFirstLoad            0      0.00%    100.00% # Class of committed instruction. (Count)
system.cpu.commitStats0.committedInstType::SimdUnitStrideSegmentedLoad            0      0.00%    100.00% # Class of committed instruction. (Count)
system.cpu.commitStats0.committedInstType::SimdUnitStrideSegmentedStore            0      0.00%    100.00% # Class of committed instruction. (Count)
system.cpu.commitStats0.committedInstType::SimdExt            0      0.00%    100.00% # Class of committed instruction. (Count)
system.cpu.commitStats0.committedInstType::SimdFloatExt            0      0.00%    100.00% # Class of committed instruction. (Count)
system.cpu.commitStats0.committedInstType::SimdConfig            0      0.00%    100.00% # Class of committed instruction. (Count)
system.cpu.commitStats0.committedInstType::total     75116131                       # Class of committed instruction. (Count)
system.cpu.commitStats0.committedControl::IsControl      8067649                       # Class of control type instructions committed (Count)
system.cpu.commitStats0.committedControl::IsDirectControl      7319614                       # Class of control type instructions committed (Count)
system.cpu.commitStats0.committedControl::IsIndirectControl       747707                       # Class of control type instructions committed (Count)
system.cpu.commitStats0.committedControl::IsCondControl      6320698                       # Class of control type instructions committed (Count)
system.cpu.commitStats0.committedControl::IsUncondControl      1746623                       # Class of control type instructions committed (Count)
system.cpu.commitStats0.committedControl::IsCall       427789                       # Class of control type instructions committed (Count)
system.cpu.commitStats0.committedControl::IsReturn       427784                       # Class of control type instructions committed (Count)
system.cpu.exec_context.thread_0.numMatAluAccesses            0                       # Number of matrix alu accesses (Count)
system.cpu.exec_context.thread_0.numCallsReturns       855573                       # Number of times a function call or return occured (Count)
system.cpu.exec_context.thread_0.numMatInsts            0                       # Number of matrix instructions (Count)
system.cpu.exec_context.thread_0.numIdleCycles            0                       # Number of idle cycles (Cycle)
system.cpu.exec_context.thread_0.numBusyCycles     96822085                       # Number of busy cycles (Cycle)
system.cpu.exec_context.thread_0.notIdleFraction            1                       # Percentage of non-idle cycles (Ratio)
system.cpu.exec_context.thread_0.idleFraction            0                       # Percentage of idle cycles (Ratio)
system.cpu.executeStats0.numInsts                   0                       # Number of executed instructions (Count)
system.cpu.executeStats0.numNop                     0                       # Number of nop insts executed (Count)
system.cpu.executeStats0.numBranches                0                       # Number of branches executed (Count)
system.cpu.executeStats0.numLoadInsts               0                       # Number of load instructions executed (Count)
system.cpu.executeStats0.numStoreInsts       16458582                       # Number of stores executed (Count)
system.cpu.executeStats0.instRate                   0                       # Inst execution rate ((Count/Cycle))
system.cpu.executeStats0.numFpAluAccesses      2444102                       # Number of float alu accesses (Count)
system.cpu.executeStats0.numFpRegReads        2690783                       # Number of times the floating registers were read (Count)
system.cpu.executeStats0.numFpRegWrites       1264344                       # Number of times the floating registers were written (Count)
system.cpu.executeStats0.numIntAluAccesses     73378146                       # Number of integer alu accesses (Count)
system.cpu.executeStats0.numIntRegReads      93061545                       # Number of times the integer registers were read (Count)
system.cpu.executeStats0.numIntRegWrites     56791032                       # Number of times the integer registers were written (Count)
system.cpu.executeStats0.numMemRefs          16458582                       # Number of memory refs (Count)
system.cpu.executeStats0.numMiscRegReads     32778818                       # Number of times the Misc registers were read (Count)
system.cpu.executeStats0.numMiscRegWrites          711                       # Number of times the Misc registers were written (Count)
system.cpu.executeStats0.numVecAluAccesses            0                       # Number of vector alu accesses (Count)
system.cpu.executeStats0.numDiscardedOps            0                       # Number of ops (including micro ops) which were discarded before commit (Count)
system.cpu.fetchStats0.numInsts              41576426                       # Number of instructions fetched (thread level) (Count)
system.cpu.fetchStats0.numOps                75116131                       # Number of ops (including micro ops) fetched (thread level) (Count)
system.cpu.fetchStats0.fetchRate             0.429411                       # Number of inst fetches per cycle ((Count/Cycle))
system.cpu.fetchStats0.numBranches            8067649                       # Number of branches fetched (Count)
system.cpu.fetchStats0.branchRate            0.083324                       # Number of branch fetches per cycle (Ratio)
system.cpu.fetchStats0.numFetchSuspends             0                       # Number of times Execute suspended instruction fetching (Count)
system.cpu.interrupts.clk_domain.clock         213328                       # Clock period in ticks (Tick)
system.cpu.l1d.demandHits::cpu.data          15330023                       # number of demand (read+write) hits (Count)
system.cpu.l1d.demandHits::total             15330023                       # number of demand (read+write) hits (Count)
system.cpu.l1d.overallHits::cpu.data         15330023                       # number of overall hits (Count)
system.cpu.l1d.overallHits::total            15330023                       # number of overall hits (Count)
system.cpu.l1d.demandMisses::cpu.data         1126791                       # number of demand (read+write) misses (Count)
system.cpu.l1d.demandMisses::total            1126791                       # number of demand (read+write) misses (Count)
system.cpu.l1d.overallMisses::cpu.data        1126791                       # number of overall misses (Count)
system.cpu.l1d.overallMisses::total           1126791                       # number of overall misses (Count)
system.cpu.l1d.demandMissLatency::cpu.data 238212444540                       # number of demand (read+write) miss ticks (Tick)
system.cpu.l1d.demandMissLatency::total  238212444540                       # number of demand (read+write) miss ticks (Tick)
system.cpu.l1d.overallMissLatency::cpu.data 238212444540                       # number of overall miss ticks (Tick)
system.cpu.l1d.overallMissLatency::total 238212444540                       # number of overall miss ticks (Tick)
system.cpu.l1d.demandAccesses::cpu.data      16456814                       # number of demand (read+write) accesses (Count)
system.cpu.l1d.demandAccesses::total         16456814                       # number of demand (read+write) accesses (Count)
system.cpu.l1d.overallAccesses::cpu.data     16456814                       # number of overall (read+write) accesses (Count)
system.cpu.l1d.overallAccesses::total        16456814                       # number of overall (read+write) accesses (Count)
system.cpu.l1d.demandMissRate::cpu.data      0.068470                       # miss rate for demand accesses (Ratio)
system.cpu.l1d.demandMissRate::total         0.068470                       # miss rate for demand accesses (Ratio)
system.cpu.l1d.overallMissRate::cpu.data     0.068470                       # miss rate for overall accesses (Ratio)
system.cpu.l1d.overallMissRate::total        0.068470                       # miss rate for overall accesses (Ratio)
system.cpu.l1d.demandAvgMissLatency::cpu.data 211407.833875                       # average overall miss latency in ticks ((Tick/Count))
system.cpu.l1d.demandAvgMissLatency::total 211407.833875                       # average overall miss latency in ticks ((Tick/Count))
system.cpu.l1d.overallAvgMissLatency::cpu.data 211407.833875                       # average overall miss latency ((Tick/Count))
system.cpu.l1d.overallAvgMissLatency::total 211407.833875                       # average overall miss latency ((Tick/Count))
system.cpu.l1d.blockedCycles::no_mshrs              0                       # number of cycles access was blocked (Cycle)
system.cpu.l1d.blockedCycles::no_targets            0                       # number of cycles access was blocked (Cycle)
system.cpu.l1d.blockedCauses::no_mshrs              0                       # number of times access was blocked (Count)
system.cpu.l1d.blockedCauses::no_targets            0                       # number of times access was blocked (Count)
system.cpu.l1d.avgBlocked::no_mshrs               nan                       # average number of cycles each access was blocked ((Cycle/Count))
system.cpu.l1d.avgBlocked::no_targets             nan                       # average number of cycles each access was blocked ((Cycle/Count))
system.cpu.l1d.writebacks::writebacks          323552                       # number of writebacks (Count)
system.cpu.l1d.writebacks::total               323552                       # number of writebacks (Count)
system.cpu.l1d.demandMshrMisses::cpu.data      1126791                       # number of demand (read+write) MSHR misses (Count)
system.cpu.l1d.demandMshrMisses::total        1126791                       # number of demand (read+write) MSHR misses (Count)
system.cpu.l1d.overallMshrMisses::cpu.data      1126791                       # number of overall MSHR misses (Count)
system.cpu.l1d.overallMshrMisses::total       1126791                       # number of overall MSHR misses (Count)
system.cpu.l1d.demandMshrMissLatency::cpu.data 223188940137                       # number of demand (read+write) MSHR miss ticks (Tick)
system.cpu.l1d.demandMshrMissLatency::total 223188940137                       # number of demand (read+write) MSHR miss ticks (Tick)
system.cpu.l1d.overallMshrMissLatency::cpu.data 223188940137                       # number of overall MSHR miss ticks (Tick)
system.cpu.l1d.overallMshrMissLatency::total 223188940137                       # number of overall MSHR miss ticks (Tick)
system.cpu.l1d.demandMshrMissRate::cpu.data     0.068470                       # mshr miss ratio for demand accesses (Ratio)
system.cpu.l1d.demandMshrMissRate::total     0.068470                       # mshr miss ratio for demand accesses (Ratio)
system.cpu.l1d.overallMshrMissRate::cpu.data     0.068470                       # mshr miss ratio for overall accesses (Ratio)
system.cpu.l1d.overallMshrMissRate::total     0.068470                       # mshr miss ratio for overall accesses (Ratio)
system.cpu.l1d.demandAvgMshrMissLatency::cpu.data 198074.833875                       # average overall mshr miss latency ((Tick/Count))
system.cpu.l1d.demandAvgMshrMissLatency::total 198074.833875                       # average overall mshr miss latency ((Tick/Count))
system.cpu.l1d.overallAvgMshrMissLatency::cpu.data 198074.833875                       # average overall mshr miss latency ((Tick/Count))
system.cpu.l1d.overallAvgMshrMissLatency::total 198074.833875                       # average overall mshr miss latency ((Tick/Count))
system.cpu.l1d.replacements                   1126810                       # number of replacements (Count)
system.cpu.l1d.LockedRMWReadReq.hits::cpu.data          545                       # number of LockedRMWReadReq hits (Count)
system.cpu.l1d.LockedRMWReadReq.hits::total          545                       # number of LockedRMWReadReq hits (Count)
system.cpu.l1d.LockedRMWReadReq.misses::cpu.data           83                       # number of LockedRMWReadReq misses (Count)
system.cpu.l1d.LockedRMWReadReq.misses::total           83                       # number of LockedRMWReadReq misses (Count)
system.cpu.l1d.LockedRMWReadReq.missLatency::cpu.data     17479563                       # number of LockedRMWReadReq miss ticks (Tick)
system.cpu.l1d.LockedRMWReadReq.missLatency::total     17479563                       # number of LockedRMWReadReq miss ticks (Tick)
system.cpu.l1d.LockedRMWReadReq.accesses::cpu.data          628                       # number of LockedRMWReadReq accesses(hits+misses) (Count)
system.cpu.l1d.LockedRMWReadReq.accesses::total          628                       # number of LockedRMWReadReq accesses(hits+misses) (Count)
system.cpu.l1d.LockedRMWReadReq.missRate::cpu.data     0.132166                       # miss rate for LockedRMWReadReq accesses (Ratio)
system.cpu.l1d.LockedRMWReadReq.missRate::total     0.132166                       # miss rate for LockedRMWReadReq accesses (Ratio)
system.cpu.l1d.LockedRMWReadReq.avgMissLatency::cpu.data 210597.144578                       # average LockedRMWReadReq miss latency ((Tick/Count))
system.cpu.l1d.LockedRMWReadReq.avgMissLatency::total 210597.144578                       # average LockedRMWReadReq miss latency ((Tick/Count))
system.cpu.l1d.LockedRMWReadReq.mshrMisses::cpu.data           83                       # number of LockedRMWReadReq MSHR misses (Count)
system.cpu.l1d.LockedRMWReadReq.mshrMisses::total           83                       # number of LockedRMWReadReq MSHR misses (Count)
system.cpu.l1d.LockedRMWReadReq.mshrMissLatency::cpu.data     41118972                       # number of LockedRMWReadReq MSHR miss ticks (Tick)
system.cpu.l1d.LockedRMWReadReq.mshrMissLatency::total     41118972                       # number of LockedRMWReadReq MSHR miss ticks (Tick)
system.cpu.l1d.LockedRMWReadReq.mshrMissRate::cpu.data     0.132166                       # mshr miss rate for LockedRMWReadReq accesses (Ratio)
system.cpu.l1d.LockedRMWReadReq.mshrMissRate::total     0.132166                       # mshr miss rate for LockedRMWReadReq accesses (Ratio)
system.cpu.l1d.LockedRMWReadReq.avgMshrMissLatency::cpu.data 495409.301205                       # average LockedRMWReadReq mshr miss latency ((Tick/Count))
system.cpu.l1d.LockedRMWReadReq.avgMshrMissLatency::total 495409.301205                       # average LockedRMWReadReq mshr miss latency ((Tick/Count))
system.cpu.l1d.LockedRMWWriteReq.hits::cpu.data          628                       # number of LockedRMWWriteReq hits (Count)
system.cpu.l1d.LockedRMWWriteReq.hits::total          628                       # number of LockedRMWWriteReq hits (Count)
system.cpu.l1d.LockedRMWWriteReq.accesses::cpu.data          628                       # number of LockedRMWWriteReq accesses(hits+misses) (Count)
system.cpu.l1d.LockedRMWWriteReq.accesses::total          628                       # number of LockedRMWWriteReq accesses(hits+misses) (Count)
system.cpu.l1d.ReadReq.hits::cpu.data         9511057                       # number of ReadReq hits (Count)
system.cpu.l1d.ReadReq.hits::total            9511057                       # number of ReadReq hits (Count)
system.cpu.l1d.ReadReq.misses::cpu.data        959349                       # number of ReadReq misses (Count)
system.cpu.l1d.ReadReq.misses::total           959349                       # number of ReadReq misses (Count)
system.cpu.l1d.ReadReq.missLatency::cpu.data 205482702804                       # number of ReadReq miss ticks (Tick)
system.cpu.l1d.ReadReq.missLatency::total 205482702804                       # number of ReadReq miss ticks (Tick)
system.cpu.l1d.ReadReq.accesses::cpu.data     10470406                       # number of ReadReq accesses(hits+misses) (Count)
system.cpu.l1d.ReadReq.accesses::total       10470406                       # number of ReadReq accesses(hits+misses) (Count)
system.cpu.l1d.ReadReq.missRate::cpu.data     0.091625                       # miss rate for ReadReq accesses (Ratio)
system.cpu.l1d.ReadReq.missRate::total       0.091625                       # miss rate for ReadReq accesses (Ratio)
system.cpu.l1d.ReadReq.avgMissLatency::cpu.data 214189.729498                       # average ReadReq miss latency ((Tick/Count))
system.cpu.l1d.ReadReq.avgMissLatency::total 214189.729498                       # average ReadReq miss latency ((Tick/Count))
system.cpu.l1d.ReadReq.mshrMisses::cpu.data       959349                       # number of ReadReq MSHR misses (Count)
system.cpu.l1d.ReadReq.mshrMisses::total       959349                       # number of ReadReq MSHR misses (Count)
system.cpu.l1d.ReadReq.mshrMissLatency::cpu.data 192691702587                       # number of ReadReq MSHR miss ticks (Tick)
system.cpu.l1d.ReadReq.mshrMissLatency::total 192691702587                       # number of ReadReq MSHR miss ticks (Tick)
system.cpu.l1d.ReadReq.mshrMissRate::cpu.data     0.091625                       # mshr miss rate for ReadReq accesses (Ratio)
system.cpu.l1d.ReadReq.mshrMissRate::total     0.091625                       # mshr miss rate for ReadReq accesses (Ratio)
system.cpu.l1d.ReadReq.avgMshrMissLatency::cpu.data 200856.729498                       # average ReadReq mshr miss latency ((Tick/Count))
system.cpu.l1d.ReadReq.avgMshrMissLatency::total 200856.729498                       # average ReadReq mshr miss latency ((Tick/Count))
system.cpu.l1d.WriteReq.hits::cpu.data        5818966                       # number of WriteReq hits (Count)
system.cpu.l1d.WriteReq.hits::total           5818966                       # number of WriteReq hits (Count)
system.cpu.l1d.WriteReq.misses::cpu.data       167442                       # number of WriteReq misses (Count)
system.cpu.l1d.WriteReq.misses::total          167442                       # number of WriteReq misses (Count)
system.cpu.l1d.WriteReq.missLatency::cpu.data  32729741736                       # number of WriteReq miss ticks (Tick)
system.cpu.l1d.WriteReq.missLatency::total  32729741736                       # number of WriteReq miss ticks (Tick)
system.cpu.l1d.WriteReq.accesses::cpu.data      5986408                       # number of WriteReq accesses(hits+misses) (Count)
system.cpu.l1d.WriteReq.accesses::total       5986408                       # number of WriteReq accesses(hits+misses) (Count)
system.cpu.l1d.WriteReq.missRate::cpu.data     0.027970                       # miss rate for WriteReq accesses (Ratio)
system.cpu.l1d.WriteReq.missRate::total      0.027970                       # miss rate for WriteReq accesses (Ratio)
system.cpu.l1d.WriteReq.avgMissLatency::cpu.data 195469.128032                       # average WriteReq miss latency ((Tick/Count))
system.cpu.l1d.WriteReq.avgMissLatency::total 195469.128032                       # average WriteReq miss latency ((Tick/Count))
system.cpu.l1d.WriteReq.mshrMisses::cpu.data       167442                       # number of WriteReq MSHR misses (Count)
system.cpu.l1d.WriteReq.mshrMisses::total       167442                       # number of WriteReq MSHR misses (Count)
system.cpu.l1d.WriteReq.mshrMissLatency::cpu.data  30497237550                       # number of WriteReq MSHR miss ticks (Tick)
system.cpu.l1d.WriteReq.mshrMissLatency::total  30497237550                       # number of WriteReq MSHR miss ticks (Tick)
system.cpu.l1d.WriteReq.mshrMissRate::cpu.data     0.027970                       # mshr miss rate for WriteReq accesses (Ratio)
system.cpu.l1d.WriteReq.mshrMissRate::total     0.027970                       # mshr miss rate for WriteReq accesses (Ratio)
system.cpu.l1d.WriteReq.avgMshrMissLatency::cpu.data 182136.128032                       # average WriteReq mshr miss latency ((Tick/Count))
system.cpu.l1d.WriteReq.avgMshrMissLatency::total 182136.128032                       # average WriteReq mshr miss latency ((Tick/Count))
system.cpu.l1d.power_state.pwrStateResidencyTicks::UNDEFINED 1290928859305                       # Cumulative time (in ticks) in various power states (Tick)
system.cpu.l1d.tags.tagsInUse               63.998849                       # Average ticks per tags in use ((Tick/Count))
system.cpu.l1d.tags.totalRefs                16333684                       # Total number of references to valid blocks. (Count)
system.cpu.l1d.tags.sampledRefs               1126810                       # Sample count of references to valid blocks. (Count)
system.cpu.l1d.tags.avgRefs                 14.495509                       # Average number of references to valid blocks. ((Count/Count))
system.cpu.l1d.tags.warmupTick                 479988                       # The tick when the warmup percentage was hit. (Tick)
system.cpu.l1d.tags.occupancies::cpu.data    63.998849                       # Average occupied blocks per tick, per requestor ((Count/Tick))
system.cpu.l1d.tags.avgOccs::cpu.data        0.999982                       # Average percentage of cache occupancy ((Ratio/Tick))
system.cpu.l1d.tags.avgOccs::total           0.999982                       # Average percentage of cache occupancy ((Ratio/Tick))
system.cpu.l1d.tags.occupanciesTaskId::1024           64                       # Occupied blocks per task id (Count)
system.cpu.l1d.tags.ageTaskId_1024::0              10                       # Occupied blocks per task id, per block age (Count)
system.cpu.l1d.tags.ageTaskId_1024::1              33                       # Occupied blocks per task id, per block age (Count)
system.cpu.l1d.tags.ageTaskId_1024::2              16                       # Occupied blocks per task id, per block age (Count)
system.cpu.l1d.tags.ageTaskId_1024::3               5                       # Occupied blocks per task id, per block age (Count)
system.cpu.l1d.tags.ratioOccsTaskId::1024            1                       # Ratio of occupied blocks and all blocks, per task id (Ratio)
system.cpu.l1d.tags.tagAccesses              34043014                       # Number of tag accesses (Count)
system.cpu.l1d.tags.dataAccesses             34043014                       # Number of data accesses (Count)
system.cpu.l1d.tags.power_state.pwrStateResidencyTicks::UNDEFINED 1290928859305                       # Cumulative time (in ticks) in various power states (Tick)
system.cpu.l1i.demandHits::cpu.inst          57263927                       # number of demand (read+write) hits (Count)
system.cpu.l1i.demandHits::total             57263927                       # number of demand (read+write) hits (Count)
system.cpu.l1i.overallHits::cpu.inst         57263927                       # number of overall hits (Count)
system.cpu.l1i.overallHits::total            57263927                       # number of overall hits (Count)
system.cpu.l1i.demandMisses::cpu.inst          315197                       # number of demand (read+write) misses (Count)
system.cpu.l1i.demandMisses::total             315197                       # number of demand (read+write) misses (Count)
system.cpu.l1i.overallMisses::cpu.inst         315197                       # number of overall misses (Count)
system.cpu.l1i.overallMisses::total            315197                       # number of overall misses (Count)
system.cpu.l1i.demandMissLatency::cpu.inst  69391718497                       # number of demand (read+write) miss ticks (Tick)
system.cpu.l1i.demandMissLatency::total   69391718497                       # number of demand (read+write) miss ticks (Tick)
system.cpu.l1i.overallMissLatency::cpu.inst  69391718497                       # number of overall miss ticks (Tick)
system.cpu.l1i.overallMissLatency::total  69391718497                       # number of overall miss ticks (Tick)
system.cpu.l1i.demandAccesses::cpu.inst      57579124                       # number of demand (read+write) accesses (Count)
system.cpu.l1i.demandAccesses::total         57579124                       # number of demand (read+write) accesses (Count)
system.cpu.l1i.overallAccesses::cpu.inst     57579124                       # number of overall (read+write) accesses (Count)
system.cpu.l1i.overallAccesses::total        57579124                       # number of overall (read+write) accesses (Count)
system.cpu.l1i.demandMissRate::cpu.inst      0.005474                       # miss rate for demand accesses (Ratio)
system.cpu.l1i.demandMissRate::total         0.005474                       # miss rate for demand accesses (Ratio)
system.cpu.l1i.overallMissRate::cpu.inst     0.005474                       # miss rate for overall accesses (Ratio)
system.cpu.l1i.overallMissRate::total        0.005474                       # miss rate for overall accesses (Ratio)
system.cpu.l1i.demandAvgMissLatency::cpu.inst 220153.486540                       # average overall miss latency in ticks ((Tick/Count))
system.cpu.l1i.demandAvgMissLatency::total 220153.486540                       # average overall miss latency in ticks ((Tick/Count))
system.cpu.l1i.overallAvgMissLatency::cpu.inst 220153.486540                       # average overall miss latency ((Tick/Count))
system.cpu.l1i.overallAvgMissLatency::total 220153.486540                       # average overall miss latency ((Tick/Count))
system.cpu.l1i.blockedCycles::no_mshrs              0                       # number of cycles access was blocked (Cycle)
system.cpu.l1i.blockedCycles::no_targets            0                       # number of cycles access was blocked (Cycle)
system.cpu.l1i.blockedCauses::no_mshrs              0                       # number of times access was blocked (Count)
system.cpu.l1i.blockedCauses::no_targets            0                       # number of times access was blocked (Count)
system.cpu.l1i.avgBlocked::no_mshrs               nan                       # average number of cycles each access was blocked ((Cycle/Count))
system.cpu.l1i.avgBlocked::no_targets             nan                       # average number of cycles each access was blocked ((Cycle/Count))
system.cpu.l1i.demandMshrMisses::cpu.inst       315197                       # number of demand (read+write) MSHR misses (Count)
system.cpu.l1i.demandMshrMisses::total         315197                       # number of demand (read+write) MSHR misses (Count)
system.cpu.l1i.overallMshrMisses::cpu.inst       315197                       # number of overall MSHR misses (Count)
system.cpu.l1i.overallMshrMisses::total        315197                       # number of overall MSHR misses (Count)
system.cpu.l1i.demandMshrMissLatency::cpu.inst  65189196896                       # number of demand (read+write) MSHR miss ticks (Tick)
system.cpu.l1i.demandMshrMissLatency::total  65189196896                       # number of demand (read+write) MSHR miss ticks (Tick)
system.cpu.l1i.overallMshrMissLatency::cpu.inst  65189196896                       # number of overall MSHR miss ticks (Tick)
system.cpu.l1i.overallMshrMissLatency::total  65189196896                       # number of overall MSHR miss ticks (Tick)
system.cpu.l1i.demandMshrMissRate::cpu.inst     0.005474                       # mshr miss ratio for demand accesses (Ratio)
system.cpu.l1i.demandMshrMissRate::total     0.005474                       # mshr miss ratio for demand accesses (Ratio)
system.cpu.l1i.overallMshrMissRate::cpu.inst     0.005474                       # mshr miss ratio for overall accesses (Ratio)
system.cpu.l1i.overallMshrMissRate::total     0.005474                       # mshr miss ratio for overall accesses (Ratio)
system.cpu.l1i.demandAvgMshrMissLatency::cpu.inst 206820.486540                       # average overall mshr miss latency ((Tick/Count))
system.cpu.l1i.demandAvgMshrMissLatency::total 206820.486540                       # average overall mshr miss latency ((Tick/Count))
system.cpu.l1i.overallAvgMshrMissLatency::cpu.inst 206820.486540                       # average overall mshr miss latency ((Tick/Count))
system.cpu.l1i.overallAvgMshrMissLatency::total 206820.486540                       # average overall mshr miss latency ((Tick/Count))
system.cpu.l1i.replacements                    315133                       # number of replacements (Count)
system.cpu.l1i.ReadReq.hits::cpu.inst        57263927                       # number of ReadReq hits (Count)
system.cpu.l1i.ReadReq.hits::total           57263927                       # number of ReadReq hits (Count)
system.cpu.l1i.ReadReq.misses::cpu.inst        315197                       # number of ReadReq misses (Count)
system.cpu.l1i.ReadReq.misses::total           315197                       # number of ReadReq misses (Count)
system.cpu.l1i.ReadReq.missLatency::cpu.inst  69391718497                       # number of ReadReq miss ticks (Tick)
system.cpu.l1i.ReadReq.missLatency::total  69391718497                       # number of ReadReq miss ticks (Tick)
system.cpu.l1i.ReadReq.accesses::cpu.inst     57579124                       # number of ReadReq accesses(hits+misses) (Count)
system.cpu.l1i.ReadReq.accesses::total       57579124                       # number of ReadReq accesses(hits+misses) (Count)
system.cpu.l1i.ReadReq.missRate::cpu.inst     0.005474                       # miss rate for ReadReq accesses (Ratio)
system.cpu.l1i.ReadReq.missRate::total       0.005474                       # miss rate for ReadReq accesses (Ratio)
system.cpu.l1i.ReadReq.avgMissLatency::cpu.inst 220153.486540                       # average ReadReq miss latency ((Tick/Count))
system.cpu.l1i.ReadReq.avgMissLatency::total 220153.486540                       # average ReadReq miss latency ((Tick/Count))
system.cpu.l1i.ReadReq.mshrMisses::cpu.inst       315197                       # number of ReadReq MSHR misses (Count)
system.cpu.l1i.ReadReq.mshrMisses::total       315197                       # number of ReadReq MSHR misses (Count)
system.cpu.l1i.ReadReq.mshrMissLatency::cpu.inst  65189196896                       # number of ReadReq MSHR miss ticks (Tick)
system.cpu.l1i.ReadReq.mshrMissLatency::total  65189196896                       # number of ReadReq MSHR miss ticks (Tick)
system.cpu.l1i.ReadReq.mshrMissRate::cpu.inst     0.005474                       # mshr miss rate for ReadReq accesses (Ratio)
system.cpu.l1i.ReadReq.mshrMissRate::total     0.005474                       # mshr miss rate for ReadReq accesses (Ratio)
system.cpu.l1i.ReadReq.avgMshrMissLatency::cpu.inst 206820.486540                       # average ReadReq mshr miss latency ((Tick/Count))
system.cpu.l1i.ReadReq.avgMshrMissLatency::total 206820.486540                       # average ReadReq mshr miss latency ((Tick/Count))
system.cpu.l1i.power_state.pwrStateResidencyTicks::UNDEFINED 1290928859305                       # Cumulative time (in ticks) in various power states (Tick)
system.cpu.l1i.tags.tagsInUse               63.996620                       # Average ticks per tags in use ((Tick/Count))
system.cpu.l1i.tags.totalRefs                51713746                       # Total number of references to valid blocks. (Count)
system.cpu.l1i.tags.sampledRefs                315133                       # Sample count of references to valid blocks. (Count)
system.cpu.l1i.tags.avgRefs                164.101335                       # Average number of references to valid blocks. ((Count/Count))
system.cpu.l1i.tags.warmupTick                 199995                       # The tick when the warmup percentage was hit. (Tick)
system.cpu.l1i.tags.occupancies::cpu.inst    63.996620                       # Average occupied blocks per tick, per requestor ((Count/Tick))
system.cpu.l1i.tags.avgOccs::cpu.inst        0.999947                       # Average percentage of cache occupancy ((Ratio/Tick))
system.cpu.l1i.tags.avgOccs::total           0.999947                       # Average percentage of cache occupancy ((Ratio/Tick))
system.cpu.l1i.tags.occupanciesTaskId::1024           64                       # Occupied blocks per task id (Count)
system.cpu.l1i.tags.ageTaskId_1024::0               9                       # Occupied blocks per task id, per block age (Count)
system.cpu.l1i.tags.ageTaskId_1024::1              13                       # Occupied blocks per task id, per block age (Count)
system.cpu.l1i.tags.ageTaskId_1024::3              11                       # Occupied blocks per task id, per block age (Count)
system.cpu.l1i.tags.ageTaskId_1024::4              31                       # Occupied blocks per task id, per block age (Count)
system.cpu.l1i.tags.ratioOccsTaskId::1024            1                       # Ratio of occupied blocks and all blocks, per task id (Ratio)
system.cpu.l1i.tags.tagAccesses             115473445                       # Number of tag accesses (Count)
system.cpu.l1i.tags.dataAccesses            115473445                       # Number of data accesses (Count)
system.cpu.l1i.tags.power_state.pwrStateResidencyTicks::UNDEFINED 1290928859305                       # Cumulative time (in ticks) in various power states (Tick)
system.cpu.mmu.dtb.rdAccesses                10471303                       # TLB accesses on read requests (Count)
system.cpu.mmu.dtb.wrAccesses                 5987332                       # TLB accesses on write requests (Count)
system.cpu.mmu.dtb.rdMisses                      2442                       # TLB misses on read requests (Count)
system.cpu.mmu.dtb.wrMisses                      1689                       # TLB misses on write requests (Count)
system.cpu.mmu.dtb.walker.power_state.pwrStateResidencyTicks::UNDEFINED 1290928859305                       # Cumulative time (in ticks) in various power states (Tick)
system.cpu.mmu.itb.rdAccesses                       0                       # TLB accesses on read requests (Count)
system.cpu.mmu.itb.wrAccesses                57579239                       # TLB accesses on write requests (Count)
system.cpu.mmu.itb.rdMisses                         0                       # TLB misses on read requests (Count)
system.cpu.mmu.itb.wrMisses                       504                       # TLB misses on write requests (Count)
system.cpu.mmu.itb.walker.power_state.pwrStateResidencyTicks::UNDEFINED 1290928859305                       # Cumulative time (in ticks) in various power states (Tick)
system.cpu.power_state.pwrStateResidencyTicks::ON 1290928859305                       # Cumulative time (in ticks) in various power states (Tick)
system.cpu.thread_0.numInsts                        0                       # Number of Instructions committed (Count)
system.cpu.thread_0.numOps                          0                       # Number of Ops committed (Count)
system.cpu.thread_0.numMemRefs                      0                       # Number of Memory References (Count)
system.cpu.workload.numSyscalls                   114                       # Number of system calls (Count)
system.mem_ctrl.avgPriority_writebacks::samples    210863.00                       # Average QoS priority value for accepted requests (Count)
system.mem_ctrl.avgPriority_cpu.inst::samples    315197.00                       # Average QoS priority value for accepted requests (Count)
system.mem_ctrl.avgPriority_cpu.data::samples    981378.00                       # Average QoS priority value for accepted requests (Count)
system.mem_ctrl.priorityMinLatency       0.000000018750                       # per QoS priority minimum request to response latency (Second)
system.mem_ctrl.priorityMaxLatency       0.042100739956                       # per QoS priority maximum request to response latency (Second)
system.mem_ctrl.numReadWriteTurnArounds         11723                       # Number of turnarounds from READ to WRITE (Count)
system.mem_ctrl.numWriteReadTurnArounds         11723                       # Number of turnarounds from WRITE to READ (Count)
system.mem_ctrl.numStayReadState              3247520                       # Number of times bus staying in READ state (Count)
system.mem_ctrl.numStayWriteState              199482                       # Number of times bus staying in WRITE state (Count)
system.mem_ctrl.readReqs                      1442071                       # Number of read requests accepted (Count)
system.mem_ctrl.writeReqs                      323552                       # Number of write requests accepted (Count)
system.mem_ctrl.readBursts                    1442071                       # Number of controller read bursts, including those serviced by the write queue (Count)
system.mem_ctrl.writeBursts                    323552                       # Number of controller write bursts, including those merged in the write queue (Count)
system.mem_ctrl.servicedByWrQ                  145496                       # Number of controller read bursts serviced by the write queue (Count)
system.mem_ctrl.mergedWrBursts                 112689                       # Number of controller write bursts merged with an existing one (Count)
system.mem_ctrl.neitherReadNorWriteReqs             0                       # Number of requests that are neither read nor write (Count)
system.mem_ctrl.avgRdQLen                        1.00                       # Average read queue length when enqueuing ((Count/Tick))
system.mem_ctrl.avgWrQLen                       24.67                       # Average write queue length when enqueuing ((Count/Tick))
system.mem_ctrl.numRdRetry                          0                       # Number of times read queue was full causing retry (Count)
system.mem_ctrl.numWrRetry                          0                       # Number of times write queue was full causing retry (Count)
system.mem_ctrl.readPktSize::0                      0                       # Read request sizes (log2) (Count)
system.mem_ctrl.readPktSize::1                      0                       # Read request sizes (log2) (Count)
system.mem_ctrl.readPktSize::2                      0                       # Read request sizes (log2) (Count)
system.mem_ctrl.readPktSize::3                      0                       # Read request sizes (log2) (Count)
system.mem_ctrl.readPktSize::4                      0                       # Read request sizes (log2) (Count)
system.mem_ctrl.readPktSize::5                      0                       # Read request sizes (log2) (Count)
system.mem_ctrl.readPktSize::6                1442071                       # Read request sizes (log2) (Count)
system.mem_ctrl.writePktSize::0                     0                       # Write request sizes (log2) (Count)
system.mem_ctrl.writePktSize::1                     0                       # Write request sizes (log2) (Count)
system.mem_ctrl.writePktSize::2                     0                       # Write request sizes (log2) (Count)
system.mem_ctrl.writePktSize::3                     0                       # Write request sizes (log2) (Count)
system.mem_ctrl.writePktSize::4                     0                       # Write request sizes (log2) (Count)
system.mem_ctrl.writePktSize::5                     0                       # Write request sizes (log2) (Count)
system.mem_ctrl.writePktSize::6                323552                       # Write request sizes (log2) (Count)
system.mem_ctrl.rdQLenPdf::0                  1296568                       # What read queue length does an incoming req see (Count)
system.mem_ctrl.rdQLenPdf::1                        7                       # What read queue length does an incoming req see (Count)
system.mem_ctrl.rdQLenPdf::2                        0                       # What read queue length does an incoming req see (Count)
system.mem_ctrl.rdQLenPdf::3                        0                       # What read queue length does an incoming req see (Count)
system.mem_ctrl.rdQLenPdf::4                        0                       # What read queue length does an incoming req see (Count)
system.mem_ctrl.rdQLenPdf::5                        0                       # What read queue length does an incoming req see (Count)
system.mem_ctrl.rdQLenPdf::6                        0                       # What read queue length does an incoming req see (Count)
system.mem_ctrl.rdQLenPdf::7                        0                       # What read queue length does an incoming req see (Count)
system.mem_ctrl.rdQLenPdf::8                        0                       # What read queue length does an incoming req see (Count)
system.mem_ctrl.rdQLenPdf::9                        0                       # What read queue length does an incoming req see (Count)
system.mem_ctrl.rdQLenPdf::10                       0                       # What read queue length does an incoming req see (Count)
system.mem_ctrl.rdQLenPdf::11                       0                       # What read queue length does an incoming req see (Count)
system.mem_ctrl.rdQLenPdf::12                       0                       # What read queue length does an incoming req see (Count)
system.mem_ctrl.rdQLenPdf::13                       0                       # What read queue length does an incoming req see (Count)
system.mem_ctrl.rdQLenPdf::14                       0                       # What read queue length does an incoming req see (Count)
system.mem_ctrl.rdQLenPdf::15                       0                       # What read queue length does an incoming req see (Count)
system.mem_ctrl.rdQLenPdf::16                       0                       # What read queue length does an incoming req see (Count)
system.mem_ctrl.rdQLenPdf::17                       0                       # What read queue length does an incoming req see (Count)
system.mem_ctrl.rdQLenPdf::18                       0                       # What read queue length does an incoming req see (Count)
system.mem_ctrl.rdQLenPdf::19                       0                       # What read queue length does an incoming req see (Count)
system.mem_ctrl.rdQLenPdf::20                       0                       # What read queue length does an incoming req see (Count)
system.mem_ctrl.rdQLenPdf::21                       0                       # What read queue length does an incoming req see (Count)
system.mem_ctrl.rdQLenPdf::22                       0                       # What read queue length does an incoming req see (Count)
system.mem_ctrl.rdQLenPdf::23                       0                       # What read queue length does an incoming req see (Count)
system.mem_ctrl.rdQLenPdf::24                       0                       # What read queue length does an incoming req see (Count)
system.mem_ctrl.rdQLenPdf::25                       0                       # What read queue length does an incoming req see (Count)
system.mem_ctrl.rdQLenPdf::26                       0                       # What read queue length does an incoming req see (Count)
system.mem_ctrl.rdQLenPdf::27                       0                       # What read queue length does an incoming req see (Count)
system.mem_ctrl.rdQLenPdf::28                       0                       # What read queue length does an incoming req see (Count)
system.mem_ctrl.rdQLenPdf::29                       0                       # What read queue length does an incoming req see (Count)
system.mem_ctrl.rdQLenPdf::30                       0                       # What read queue length does an incoming req see (Count)
system.mem_ctrl.rdQLenPdf::31                       0                       # What read queue length does an incoming req see (Count)
system.mem_ctrl.wrQLenPdf::0                        1                       # What write queue length does an incoming req see (Count)
system.mem_ctrl.wrQLenPdf::1                        1                       # What write queue length does an incoming req see (Count)
system.mem_ctrl.wrQLenPdf::2                        1                       # What write queue length does an incoming req see (Count)
system.mem_ctrl.wrQLenPdf::3                        1                       # What write queue length does an incoming req see (Count)
system.mem_ctrl.wrQLenPdf::4                        1                       # What write queue length does an incoming req see (Count)
system.mem_ctrl.wrQLenPdf::5                        1                       # What write queue length does an incoming req see (Count)
system.mem_ctrl.wrQLenPdf::6                        1                       # What write queue length does an incoming req see (Count)
system.mem_ctrl.wrQLenPdf::7                        1                       # What write queue length does an incoming req see (Count)
system.mem_ctrl.wrQLenPdf::8                        1                       # What write queue length does an incoming req see (Count)
system.mem_ctrl.wrQLenPdf::9                        1                       # What write queue length does an incoming req see (Count)
system.mem_ctrl.wrQLenPdf::10                       1                       # What write queue length does an incoming req see (Count)
system.mem_ctrl.wrQLenPdf::11                       1                       # What write queue length does an incoming req see (Count)
system.mem_ctrl.wrQLenPdf::12                       1                       # What write queue length does an incoming req see (Count)
system.mem_ctrl.wrQLenPdf::13                       1                       # What write queue length does an incoming req see (Count)
system.mem_ctrl.wrQLenPdf::14                       1                       # What write queue length does an incoming req see (Count)
system.mem_ctrl.wrQLenPdf::15                   11607                       # What write queue length does an incoming req see (Count)
system.mem_ctrl.wrQLenPdf::16                   11660                       # What write queue length does an incoming req see (Count)
system.mem_ctrl.wrQLenPdf::17                   11725                       # What write queue length does an incoming req see (Count)
system.mem_ctrl.wrQLenPdf::18                   11724                       # What write queue length does an incoming req see (Count)
system.mem_ctrl.wrQLenPdf::19                   11724                       # What write queue length does an incoming req see (Count)
system.mem_ctrl.wrQLenPdf::20                   11724                       # What write queue length does an incoming req see (Count)
system.mem_ctrl.wrQLenPdf::21                   11724                       # What write queue length does an incoming req see (Count)
system.mem_ctrl.wrQLenPdf::22                   11724                       # What write queue length does an incoming req see (Count)
system.mem_ctrl.wrQLenPdf::23                   11724                       # What write queue length does an incoming req see (Count)
system.mem_ctrl.wrQLenPdf::24                   11724                       # What write queue length does an incoming req see (Count)
system.mem_ctrl.wrQLenPdf::25                   11724                       # What write queue length does an incoming req see (Count)
system.mem_ctrl.wrQLenPdf::26                   11724                       # What write queue length does an incoming req see (Count)
system.mem_ctrl.wrQLenPdf::27                   11724                       # What write queue length does an incoming req see (Count)
system.mem_ctrl.wrQLenPdf::28                   11724                       # What write queue length does an incoming req see (Count)
system.mem_ctrl.wrQLenPdf::29                   11723                       # What write queue length does an incoming req see (Count)
system.mem_ctrl.wrQLenPdf::30                   11723                       # What write queue length does an incoming req see (Count)
system.mem_ctrl.wrQLenPdf::31                   11723                       # What write queue length does an incoming req see (Count)
system.mem_ctrl.wrQLenPdf::32                   11723                       # What write queue length does an incoming req see (Count)
system.mem_ctrl.wrQLenPdf::33                       0                       # What write queue length does an incoming req see (Count)
system.mem_ctrl.wrQLenPdf::34                       0                       # What write queue length does an incoming req see (Count)
system.mem_ctrl.wrQLenPdf::35                       0                       # What write queue length does an incoming req see (Count)
system.mem_ctrl.wrQLenPdf::36                       0                       # What write queue length does an incoming req see (Count)
system.mem_ctrl.wrQLenPdf::37                       0                       # What write queue length does an incoming req see (Count)
system.mem_ctrl.wrQLenPdf::38                       0                       # What write queue length does an incoming req see (Count)
system.mem_ctrl.wrQLenPdf::39                       0                       # What write queue length does an incoming req see (Count)
system.mem_ctrl.wrQLenPdf::40                       0                       # What write queue length does an incoming req see (Count)
system.mem_ctrl.wrQLenPdf::41                       0                       # What write queue length does an incoming req see (Count)
system.mem_ctrl.wrQLenPdf::42                       0                       # What write queue length does an incoming req see (Count)
system.mem_ctrl.wrQLenPdf::43                       0                       # What write queue length does an incoming req see (Count)
system.mem_ctrl.wrQLenPdf::44                       0                       # What write queue length does an incoming req see (Count)
system.mem_ctrl.wrQLenPdf::45                       0                       # What write queue length does an incoming req see (Count)
system.mem_ctrl.wrQLenPdf::46                       0                       # What write queue length does an incoming req see (Count)
system.mem_ctrl.wrQLenPdf::47                       0                       # What write queue length does an incoming req see (Count)
system.mem_ctrl.wrQLenPdf::48                       0                       # What write queue length does an incoming req see (Count)
system.mem_ctrl.wrQLenPdf::49                       0                       # What write queue length does an incoming req see (Count)
system.mem_ctrl.wrQLenPdf::50                       0                       # What write queue length does an incoming req see (Count)
system.mem_ctrl.wrQLenPdf::51                       0                       # What write queue length does an incoming req see (Count)
system.mem_ctrl.wrQLenPdf::52                       0                       # What write queue length does an incoming req see (Count)
system.mem_ctrl.wrQLenPdf::53                       0                       # What write queue length does an incoming req see (Count)
system.mem_ctrl.wrQLenPdf::54                       0                       # What write queue length does an incoming req see (Count)
system.mem_ctrl.wrQLenPdf::55                       0                       # What write queue length does an incoming req see (Count)
system.mem_ctrl.wrQLenPdf::56                       0                       # What write queue length does an incoming req see (Count)
system.mem_ctrl.wrQLenPdf::57                       0                       # What write queue length does an incoming req see (Count)
system.mem_ctrl.wrQLenPdf::58                       0                       # What write queue length does an incoming req see (Count)
system.mem_ctrl.wrQLenPdf::59                       0                       # What write queue length does an incoming req see (Count)
system.mem_ctrl.wrQLenPdf::60                       0                       # What write queue length does an incoming req see (Count)
system.mem_ctrl.wrQLenPdf::61                       0                       # What write queue length does an incoming req see (Count)
system.mem_ctrl.wrQLenPdf::62                       0                       # What write queue length does an incoming req see (Count)
system.mem_ctrl.wrQLenPdf::63                       0                       # What write queue length does an incoming req see (Count)
system.mem_ctrl.rdPerTurnAround::samples        11723                       # Reads before turning the bus around for writes (Count)
system.mem_ctrl.rdPerTurnAround::mean      110.598226                       # Reads before turning the bus around for writes (Count)
system.mem_ctrl.rdPerTurnAround::gmean      57.229101                       # Reads before turning the bus around for writes (Count)
system.mem_ctrl.rdPerTurnAround::stdev     155.803691                       # Reads before turning the bus around for writes (Count)
system.mem_ctrl.rdPerTurnAround::0-127           7646     65.22%     65.22% # Reads before turning the bus around for writes (Count)
system.mem_ctrl.rdPerTurnAround::128-255         3083     26.30%     91.52% # Reads before turning the bus around for writes (Count)
system.mem_ctrl.rdPerTurnAround::256-383          526      4.49%     96.01% # Reads before turning the bus around for writes (Count)
system.mem_ctrl.rdPerTurnAround::384-511          203      1.73%     97.74% # Reads before turning the bus around for writes (Count)
system.mem_ctrl.rdPerTurnAround::512-639           87      0.74%     98.48% # Reads before turning the bus around for writes (Count)
system.mem_ctrl.rdPerTurnAround::640-767           52      0.44%     98.93% # Reads before turning the bus around for writes (Count)
system.mem_ctrl.rdPerTurnAround::768-895           30      0.26%     99.18% # Reads before turning the bus around for writes (Count)
system.mem_ctrl.rdPerTurnAround::896-1023           38      0.32%     99.51% # Reads before turning the bus around for writes (Count)
system.mem_ctrl.rdPerTurnAround::1024-1151           23      0.20%     99.70% # Reads before turning the bus around for writes (Count)
system.mem_ctrl.rdPerTurnAround::1152-1279            9      0.08%     99.78% # Reads before turning the bus around for writes (Count)
system.mem_ctrl.rdPerTurnAround::1280-1407            8      0.07%     99.85% # Reads before turning the bus around for writes (Count)
system.mem_ctrl.rdPerTurnAround::1408-1535            3      0.03%     99.87% # Reads before turning the bus around for writes (Count)
system.mem_ctrl.rdPerTurnAround::1536-1663            5      0.04%     99.91% # Reads before turning the bus around for writes (Count)
system.mem_ctrl.rdPerTurnAround::1664-1791            2      0.02%     99.93% # Reads before turning the bus around for writes (Count)
system.mem_ctrl.rdPerTurnAround::1792-1919            2      0.02%     99.95% # Reads before turning the bus around for writes (Count)
system.mem_ctrl.rdPerTurnAround::1920-2047            4      0.03%     99.98% # Reads before turning the bus around for writes (Count)
system.mem_ctrl.rdPerTurnAround::2304-2431            1      0.01%     99.99% # Reads before turning the bus around for writes (Count)
system.mem_ctrl.rdPerTurnAround::2688-2815            1      0.01%    100.00% # Reads before turning the bus around for writes (Count)
system.mem_ctrl.rdPerTurnAround::total          11723                       # Reads before turning the bus around for writes (Count)
system.mem_ctrl.wrPerTurnAround::samples        11723                       # Writes before turning the bus around for reads (Count)
system.mem_ctrl.wrPerTurnAround::mean       17.984646                       # Writes before turning the bus around for reads (Count)
system.mem_ctrl.wrPerTurnAround::gmean      17.983864                       # Writes before turning the bus around for reads (Count)
system.mem_ctrl.wrPerTurnAround::stdev       0.161896                       # Writes before turning the bus around for reads (Count)
system.mem_ctrl.wrPerTurnAround::16                64      0.55%      0.55% # Writes before turning the bus around for reads (Count)
system.mem_ctrl.wrPerTurnAround::17                53      0.45%      1.00% # Writes before turning the bus around for reads (Count)
system.mem_ctrl.wrPerTurnAround::18             11605     98.99%     99.99% # Writes before turning the bus around for reads (Count)
system.mem_ctrl.wrPerTurnAround::19                 1      0.01%    100.00% # Writes before turning the bus around for reads (Count)
system.mem_ctrl.wrPerTurnAround::total          11723                       # Writes before turning the bus around for reads (Count)
system.mem_ctrl.bytesReadWrQ                  9311744                       # Total number of bytes read from write queue (Byte)
system.mem_ctrl.bytesReadSys                 92292544                       # Total read bytes from the system interface side (Byte)
system.mem_ctrl.bytesWrittenSys              20707328                       # Total written bytes from the system interface side (Byte)
system.mem_ctrl.avgRdBWSys               71493129.41201712                       # Average system read bandwidth in Byte/s ((Byte/Second))
system.mem_ctrl.avgWrBWSys               16040642.24820897                       # Average system write bandwidth in Byte/s ((Byte/Second))
system.mem_ctrl.totGap                   1290928659310                       # Total gap between requests (Tick)
system.mem_ctrl.avgGap                      731146.26                       # Average gap between requests ((Tick/Count))
system.mem_ctrl.requestorReadBytes::cpu.inst     20172608                       # Per-requestor bytes read from memory (Byte)
system.mem_ctrl.requestorReadBytes::cpu.data     62808192                       # Per-requestor bytes read from memory (Byte)
system.mem_ctrl.requestorWriteBytes::writebacks     13493376                       # Per-requestor bytes write to memory (Byte)
system.mem_ctrl.requestorReadRate::cpu.inst 15626428.872974742204                       # Per-requestor bytes read from memory rate ((Byte/Second))
system.mem_ctrl.requestorReadRate::cpu.data 48653488.182001121342                       # Per-requestor bytes read from memory rate ((Byte/Second))
system.mem_ctrl.requestorWriteRate::writebacks 10452455.147113572806                       # Per-requestor bytes write to memory rate ((Byte/Second))
system.mem_ctrl.requestorReadAccesses::cpu.inst       315197                       # Per-requestor read serviced memory accesses (Count)
system.mem_ctrl.requestorReadAccesses::cpu.data      1126874                       # Per-requestor read serviced memory accesses (Count)
system.mem_ctrl.requestorWriteAccesses::writebacks       323552                       # Per-requestor write serviced memory accesses (Count)
system.mem_ctrl.requestorReadTotalLat::cpu.inst  12122519415                       # Per-requestor read total memory access latency (Tick)
system.mem_ctrl.requestorReadTotalLat::cpu.data  34674228725                       # Per-requestor read total memory access latency (Tick)
system.mem_ctrl.requestorWriteTotalLat::writebacks 30840372724197                       # Per-requestor write total memory access latency (Tick)
system.mem_ctrl.requestorReadAvgLat::cpu.inst     38460.14                       # Per-requestor read average memory access latency ((Tick/Count))
system.mem_ctrl.requestorReadAvgLat::cpu.data     30770.28                       # Per-requestor read average memory access latency ((Tick/Count))
system.mem_ctrl.requestorWriteAvgLat::writebacks  95318133.48                       # Per-requestor write average memory access latency ((Tick/Count))
system.mem_ctrl.dram.bytesRead::cpu.inst     20172608                       # Number of bytes read from this memory (Byte)
system.mem_ctrl.dram.bytesRead::cpu.data     72119936                       # Number of bytes read from this memory (Byte)
system.mem_ctrl.dram.bytesRead::total        92292544                       # Number of bytes read from this memory (Byte)
system.mem_ctrl.dram.bytesInstRead::cpu.inst     20172608                       # Number of instructions bytes read from this memory (Byte)
system.mem_ctrl.dram.bytesInstRead::total     20172608                       # Number of instructions bytes read from this memory (Byte)
system.mem_ctrl.dram.bytesWritten::writebacks     20707328                       # Number of bytes written to this memory (Byte)
system.mem_ctrl.dram.bytesWritten::total     20707328                       # Number of bytes written to this memory (Byte)
system.mem_ctrl.dram.numReads::cpu.inst        315197                       # Number of read requests responded to by this memory (Count)
system.mem_ctrl.dram.numReads::cpu.data       1126874                       # Number of read requests responded to by this memory (Count)
system.mem_ctrl.dram.numReads::total          1442071                       # Number of read requests responded to by this memory (Count)
system.mem_ctrl.dram.numWrites::writebacks       323552                       # Number of write requests responded to by this memory (Count)
system.mem_ctrl.dram.numWrites::total          323552                       # Number of write requests responded to by this memory (Count)
system.mem_ctrl.dram.bwRead::cpu.inst        15626429                       # Total read bandwidth from this memory ((Byte/Second))
system.mem_ctrl.dram.bwRead::cpu.data        55866701                       # Total read bandwidth from this memory ((Byte/Second))
system.mem_ctrl.dram.bwRead::total           71493129                       # Total read bandwidth from this memory ((Byte/Second))
system.mem_ctrl.dram.bwInstRead::cpu.inst     15626429                       # Instruction read bandwidth from this memory ((Byte/Second))
system.mem_ctrl.dram.bwInstRead::total       15626429                       # Instruction read bandwidth from this memory ((Byte/Second))
system.mem_ctrl.dram.bwWrite::writebacks     16040642                       # Write bandwidth from this memory ((Byte/Second))
system.mem_ctrl.dram.bwWrite::total          16040642                       # Write bandwidth from this memory ((Byte/Second))
system.mem_ctrl.dram.bwTotal::writebacks     16040642                       # Total bandwidth to/from this memory ((Byte/Second))
system.mem_ctrl.dram.bwTotal::cpu.inst       15626429                       # Total bandwidth to/from this memory ((Byte/Second))
system.mem_ctrl.dram.bwTotal::cpu.data       55866701                       # Total bandwidth to/from this memory ((Byte/Second))
system.mem_ctrl.dram.bwTotal::total          87533772                       # Total bandwidth to/from this memory ((Byte/Second))
system.mem_ctrl.dram.readBursts               1296575                       # Number of DRAM read bursts (Count)
system.mem_ctrl.dram.writeBursts               210834                       # Number of DRAM write bursts (Count)
system.mem_ctrl.dram.perBankRdBursts::0        126215                       # Per bank write bursts (Count)
system.mem_ctrl.dram.perBankRdBursts::1        129214                       # Per bank write bursts (Count)
system.mem_ctrl.dram.perBankRdBursts::2         95610                       # Per bank write bursts (Count)
system.mem_ctrl.dram.perBankRdBursts::3        145428                       # Per bank write bursts (Count)
system.mem_ctrl.dram.perBankRdBursts::4         98681                       # Per bank write bursts (Count)
system.mem_ctrl.dram.perBankRdBursts::5         47192                       # Per bank write bursts (Count)
system.mem_ctrl.dram.perBankRdBursts::6         29509                       # Per bank write bursts (Count)
system.mem_ctrl.dram.perBankRdBursts::7        145886                       # Per bank write bursts (Count)
system.mem_ctrl.dram.perBankRdBursts::8         94924                       # Per bank write bursts (Count)
system.mem_ctrl.dram.perBankRdBursts::9         37242                       # Per bank write bursts (Count)
system.mem_ctrl.dram.perBankRdBursts::10        55596                       # Per bank write bursts (Count)
system.mem_ctrl.dram.perBankRdBursts::11        38763                       # Per bank write bursts (Count)
system.mem_ctrl.dram.perBankRdBursts::12        57097                       # Per bank write bursts (Count)
system.mem_ctrl.dram.perBankRdBursts::13        34599                       # Per bank write bursts (Count)
system.mem_ctrl.dram.perBankRdBursts::14       120105                       # Per bank write bursts (Count)
system.mem_ctrl.dram.perBankRdBursts::15        40514                       # Per bank write bursts (Count)
system.mem_ctrl.dram.perBankWrBursts::0         14735                       # Per bank write bursts (Count)
system.mem_ctrl.dram.perBankWrBursts::1         20963                       # Per bank write bursts (Count)
system.mem_ctrl.dram.perBankWrBursts::2         21480                       # Per bank write bursts (Count)
system.mem_ctrl.dram.perBankWrBursts::3         21307                       # Per bank write bursts (Count)
system.mem_ctrl.dram.perBankWrBursts::4         13522                       # Per bank write bursts (Count)
system.mem_ctrl.dram.perBankWrBursts::5         12271                       # Per bank write bursts (Count)
system.mem_ctrl.dram.perBankWrBursts::6          8396                       # Per bank write bursts (Count)
system.mem_ctrl.dram.perBankWrBursts::7          9828                       # Per bank write bursts (Count)
system.mem_ctrl.dram.perBankWrBursts::8         11707                       # Per bank write bursts (Count)
system.mem_ctrl.dram.perBankWrBursts::9          9953                       # Per bank write bursts (Count)
system.mem_ctrl.dram.perBankWrBursts::10        17048                       # Per bank write bursts (Count)
system.mem_ctrl.dram.perBankWrBursts::11         9106                       # Per bank write bursts (Count)
system.mem_ctrl.dram.perBankWrBursts::12         8972                       # Per bank write bursts (Count)
system.mem_ctrl.dram.perBankWrBursts::13         8872                       # Per bank write bursts (Count)
system.mem_ctrl.dram.perBankWrBursts::14        11045                       # Per bank write bursts (Count)
system.mem_ctrl.dram.perBankWrBursts::15        11629                       # Per bank write bursts (Count)
system.mem_ctrl.dram.totQLat              22485966890                       # Total ticks spent queuing (Tick)
system.mem_ctrl.dram.totBusLat             6482875000                       # Total ticks spent in databus transfers (Tick)
system.mem_ctrl.dram.totMemAccLat         46796748140                       # Total ticks spent from burst creation until serviced by the DRAM (Tick)
system.mem_ctrl.dram.avgQLat                 17342.59                       # Average queueing delay per DRAM burst ((Tick/Count))
system.mem_ctrl.dram.avgBusLat                5000.00                       # Average bus latency per DRAM burst ((Tick/Count))
system.mem_ctrl.dram.avgMemAccLat            36092.59                       # Average memory access latency per DRAM burst ((Tick/Count))
[...]
system.mem_ctrl.dram.bwRead::cpu.data        23019534                       # Total read bandwidth from this memory ((Byte/Second))
system.mem_ctrl.dram.bwRead::total          109684571                       # Total read bandwidth from this memory ((Byte/Second))
system.mem_ctrl.dram.bwInstRead::cpu.inst     86665037                       # Instruction read bandwidth from this memory ((Byte/Second))
system.mem_ctrl.dram.bwInstRead::total       86665037                       # Instruction read bandwidth from this memory ((Byte/Second))
system.mem_ctrl.dram.bwWrite::writebacks      8522079                       # Write bandwidth from this memory ((Byte/Second))
system.mem_ctrl.dram.bwWrite::total           8522079                       # Write bandwidth from this memory ((Byte/Second))
system.mem_ctrl.dram.bwTotal::writebacks      8522079                       # Total bandwidth to/from this memory ((Byte/Second))
system.mem_ctrl.dram.bwTotal::cpu.inst       86665037                       # Total bandwidth to/from this memory ((Byte/Second))
system.mem_ctrl.dram.bwTotal::cpu.data       23019534                       # Total bandwidth to/from this memory ((Byte/Second))
system.mem_ctrl.dram.bwTotal::total         118206650                       # Total bandwidth to/from this memory ((Byte/Second))
system.mem_ctrl.dram.readBursts                225009                       # Number of DRAM read bursts (Count)
system.mem_ctrl.dram.writeBursts                10298                       # Number of DRAM write bursts (Count)
system.mem_ctrl.dram.perBankRdBursts::0          1855                       # Per bank write bursts (Count)
system.mem_ctrl.dram.perBankRdBursts::1          5380                       # Per bank write bursts (Count)
system.mem_ctrl.dram.perBankRdBursts::2          1787                       # Per bank write bursts (Count)
system.mem_ctrl.dram.perBankRdBursts::3         17558                       # Per bank write bursts (Count)
system.mem_ctrl.dram.perBankRdBursts::4          1705                       # Per bank write bursts (Count)
system.mem_ctrl.dram.perBankRdBursts::5          1464                       # Per bank write bursts (Count)
system.mem_ctrl.dram.perBankRdBursts::6          2445                       # Per bank write bursts (Count)
system.mem_ctrl.dram.perBankRdBursts::7          1519                       # Per bank write bursts (Count)
system.mem_ctrl.dram.perBankRdBursts::8         14472                       # Per bank write bursts (Count)
system.mem_ctrl.dram.perBankRdBursts::9         89715                       # Per bank write bursts (Count)
system.mem_ctrl.dram.perBankRdBursts::10        23313                       # Per bank write bursts (Count)
system.mem_ctrl.dram.perBankRdBursts::11        30768                       # Per bank write bursts (Count)
system.mem_ctrl.dram.perBankRdBursts::12        18251                       # Per bank write bursts (Count)
system.mem_ctrl.dram.perBankRdBursts::13         1507                       # Per bank write bursts (Count)
system.mem_ctrl.dram.perBankRdBursts::14        11205                       # Per bank write bursts (Count)
system.mem_ctrl.dram.perBankRdBursts::15         2065                       # Per bank write bursts (Count)
system.mem_ctrl.dram.perBankWrBursts::0           655                       # Per bank write bursts (Count)
system.mem_ctrl.dram.perBankWrBursts::1           473                       # Per bank write bursts (Count)
system.mem_ctrl.dram.perBankWrBursts::2           442                       # Per bank write bursts (Count)
system.mem_ctrl.dram.perBankWrBursts::3           418                       # Per bank write bursts (Count)
system.mem_ctrl.dram.perBankWrBursts::4           548                       # Per bank write bursts (Count)
system.mem_ctrl.dram.perBankWrBursts::5           660                       # Per bank write bursts (Count)
system.mem_ctrl.dram.perBankWrBursts::6           746                       # Per bank write bursts (Count)
system.mem_ctrl.dram.perBankWrBursts::7           565                       # Per bank write bursts (Count)
system.mem_ctrl.dram.perBankWrBursts::8           579                       # Per bank write bursts (Count)
system.mem_ctrl.dram.perBankWrBursts::9           409                       # Per bank write bursts (Count)
system.mem_ctrl.dram.perBankWrBursts::10         1089                       # Per bank write bursts (Count)
system.mem_ctrl.dram.perBankWrBursts::11          855                       # Per bank write bursts (Count)
system.mem_ctrl.dram.perBankWrBursts::12          770                       # Per bank write bursts (Count)
system.mem_ctrl.dram.perBankWrBursts::13          606                       # Per bank write bursts (Count)
system.mem_ctrl.dram.perBankWrBursts::14          764                       # Per bank write bursts (Count)
system.mem_ctrl.dram.perBankWrBursts::15          719                       # Per bank write bursts (Count)
system.mem_ctrl.dram.totQLat               2643994491                       # Total ticks spent queuing (Tick)
system.mem_ctrl.dram.totBusLat             1125045000                       # Total ticks spent in databus transfers (Tick)
system.mem_ctrl.dram.totMemAccLat          6862913241                       # Total ticks spent from burst creation until serviced by the DRAM (Tick)
system.mem_ctrl.dram.avgQLat                 11750.62                       # Average queueing delay per DRAM burst ((Tick/Count))
system.mem_ctrl.dram.avgBusLat                5000.00                       # Average bus latency per DRAM burst ((Tick/Count))
system.mem_ctrl.dram.avgMemAccLat            30500.62                       # Average memory access latency per DRAM burst ((Tick/Count))
system.mem_ctrl.dram.readRowHits               136627                       # Number of row buffer hits during reads (Count)
system.mem_ctrl.dram.writeRowHits                9279                       # Number of row buffer hits during writes (Count)
system.mem_ctrl.dram.readRowHitRate             60.72                       # Row buffer hit rate for reads (Ratio)
system.mem_ctrl.dram.writeRowHitRate            90.10                       # Row buffer hit rate for writes (Ratio)
system.mem_ctrl.dram.bytesPerActivate::samples        89404                       # Bytes accessed per row activation (Byte)
system.mem_ctrl.dram.bytesPerActivate::mean   168.459219                       # Bytes accessed per row activation (Byte)
system.mem_ctrl.dram.bytesPerActivate::gmean   123.648282                       # Bytes accessed per row activation (Byte)
system.mem_ctrl.dram.bytesPerActivate::stdev   157.250138                       # Bytes accessed per row activation (Byte)
system.mem_ctrl.dram.bytesPerActivate::0-127        44028     49.25%     49.25% # Bytes accessed per row activation (Byte)
system.mem_ctrl.dram.bytesPerActivate::128-255        23925     26.76%     76.01% # Bytes accessed per row activation (Byte)
system.mem_ctrl.dram.bytesPerActivate::256-383        11387     12.74%     88.74% # Bytes accessed per row activation (Byte)
system.mem_ctrl.dram.bytesPerActivate::384-511         4144      4.64%     93.38% # Bytes accessed per row activation (Byte)
system.mem_ctrl.dram.bytesPerActivate::512-639         4549      5.09%     98.47% # Bytes accessed per row activation (Byte)
system.mem_ctrl.dram.bytesPerActivate::640-767          182      0.20%     98.67% # Bytes accessed per row activation (Byte)
system.mem_ctrl.dram.bytesPerActivate::768-895          398      0.45%     99.12% # Bytes accessed per row activation (Byte)
system.mem_ctrl.dram.bytesPerActivate::896-1023           86      0.10%     99.21% # Bytes accessed per row activation (Byte)
system.mem_ctrl.dram.bytesPerActivate::1024-1151          705      0.79%    100.00% # Bytes accessed per row activation (Byte)
system.mem_ctrl.dram.bytesPerActivate::total        89404                       # Bytes accessed per row activation (Byte)
system.mem_ctrl.dram.dramBytesRead           14400576                       # Total bytes read (Byte)
system.mem_ctrl.dram.dramBytesWritten          659072                       # Total bytes written (Byte)
system.mem_ctrl.dram.avgRdBW               105.783887                       # Average DRAM read bandwidth in MiBytes/s ((Byte/Second))
system.mem_ctrl.dram.avgWrBW                 4.841417                       # Average DRAM write bandwidth in MiBytes/s ((Byte/Second))
system.mem_ctrl.dram.peakBW                  12800.00                       # Theoretical peak bandwidth in MiByte/s ((Byte/Second))
system.mem_ctrl.dram.busUtil                     0.86                       # Data bus utilization in percentage (Ratio)
system.mem_ctrl.dram.busUtilRead                 0.83                       # Data bus utilization in percentage for reads (Ratio)
system.mem_ctrl.dram.busUtilWrite                0.04                       # Data bus utilization in percentage for writes (Ratio)
system.mem_ctrl.dram.pageHitRate                62.01                       # Row buffer hit rate, read and write combined (Ratio)
system.mem_ctrl.dram.power_state.pwrStateResidencyTicks::UNDEFINED 136132036614                       # Cumulative time (in ticks) in various power states (Tick)
system.mem_ctrl.dram.rank0.actEnergy        132282780                       # Energy for activate commands per rank (pJ) (Joule)
system.mem_ctrl.dram.rank0.preEnergy         70321350                       # Energy for precharge commands per rank (pJ) (Joule)
system.mem_ctrl.dram.rank0.readEnergy       240710820                       # Energy for read commands per rank (pJ) (Joule)
system.mem_ctrl.dram.rank0.writeEnergy       23526540                       # Energy for write commands per rank (pJ) (Joule)
system.mem_ctrl.dram.rank0.refreshEnergy 10746365760.000002                       # Energy for refresh commands per rank (pJ) (Joule)
system.mem_ctrl.dram.rank0.actBackEnergy  30181159710                       # Energy for active background per rank (pJ) (Joule)
system.mem_ctrl.dram.rank0.preBackEnergy  26858988960                       # Energy for precharge background per rank (pJ) (Joule)
system.mem_ctrl.dram.rank0.actPowerDownEnergy            0                       # Energy for active power-down per rank (pJ) (Joule)
system.mem_ctrl.dram.rank0.prePowerDownEnergy            0                       # Energy for precharge power-down per rank (pJ) (Joule)
system.mem_ctrl.dram.rank0.selfRefreshEnergy            0                       # Energy for self refresh per rank (pJ) (Joule)
system.mem_ctrl.dram.rank0.totalEnergy    68253355920                       # Total energy per rank (pJ) (Joule)
system.mem_ctrl.dram.rank0.averagePower    501.376146                       # Core power per rank (mW) (Watt)
system.mem_ctrl.dram.rank0.totalIdleTime            0                       # Total Idle time Per DRAM Rank (Tick)
system.mem_ctrl.dram.rank0.pwrStateTime::IDLE  69516947163                       # Time in different power states (Tick)
system.mem_ctrl.dram.rank0.pwrStateTime::REF   4545840000                       # Time in different power states (Tick)
system.mem_ctrl.dram.rank0.pwrStateTime::SREF            0                       # Time in different power states (Tick)
system.mem_ctrl.dram.rank0.pwrStateTime::PRE_PDN            0                       # Time in different power states (Tick)
system.mem_ctrl.dram.rank0.pwrStateTime::ACT  62069249451                       # Time in different power states (Tick)
system.mem_ctrl.dram.rank0.pwrStateTime::ACT_PDN            0                       # Time in different power states (Tick)
system.mem_ctrl.dram.rank1.actEnergy        506040360                       # Energy for activate commands per rank (pJ) (Joule)
system.mem_ctrl.dram.rank1.preEnergy        268966830                       # Energy for precharge commands per rank (pJ) (Joule)
system.mem_ctrl.dram.rank1.readEnergy      1365853440                       # Energy for read commands per rank (pJ) (Joule)
system.mem_ctrl.dram.rank1.writeEnergy       30229020                       # Energy for write commands per rank (pJ) (Joule)
system.mem_ctrl.dram.rank1.refreshEnergy 10746365760.000002                       # Energy for refresh commands per rank (pJ) (Joule)
system.mem_ctrl.dram.rank1.actBackEnergy  55394057490                       # Energy for active background per rank (pJ) (Joule)
system.mem_ctrl.dram.rank1.preBackEnergy   5627075040                       # Energy for precharge background per rank (pJ) (Joule)
system.mem_ctrl.dram.rank1.actPowerDownEnergy            0                       # Energy for active power-down per rank (pJ) (Joule)
system.mem_ctrl.dram.rank1.prePowerDownEnergy            0                       # Energy for precharge power-down per rank (pJ) (Joule)
system.mem_ctrl.dram.rank1.selfRefreshEnergy            0                       # Energy for self refresh per rank (pJ) (Joule)
system.mem_ctrl.dram.rank1.totalEnergy    73938587940                       # Total energy per rank (pJ) (Joule)
system.mem_ctrl.dram.rank1.averagePower    543.138777                       # Core power per rank (mW) (Watt)
system.mem_ctrl.dram.rank1.totalIdleTime            0                       # Total Idle time Per DRAM Rank (Tick)
system.mem_ctrl.dram.rank1.pwrStateTime::IDLE  14131217869                       # Time in different power states (Tick)
system.mem_ctrl.dram.rank1.pwrStateTime::REF   4545840000                       # Time in different power states (Tick)
system.mem_ctrl.dram.rank1.pwrStateTime::SREF            0                       # Time in different power states (Tick)
system.mem_ctrl.dram.rank1.pwrStateTime::PRE_PDN            0                       # Time in different power states (Tick)
system.mem_ctrl.dram.rank1.pwrStateTime::ACT 117454978745                       # Time in different power states (Tick)
system.mem_ctrl.dram.rank1.pwrStateTime::ACT_PDN            0                       # Time in different power states (Tick)
system.mem_ctrl.power_state.pwrStateResidencyTicks::UNDEFINED 136132036614                       # Cumulative time (in ticks) in various power states (Tick)
system.membus.transDist::ReadResp              215811                       # Transaction distribution (Count)
system.membus.transDist::WritebackDirty         18127                       # Transaction distribution (Count)
system.membus.transDist::CleanEvict            215179                       # Transaction distribution (Count)
system.membus.transDist::ReadExReq              17495                       # Transaction distribution (Count)
system.membus.transDist::ReadExResp             17495                       # Transaction distribution (Count)
system.membus.transDist::ReadSharedReq         215811                       # Transaction distribution (Count)
system.membus.pktCount_system.cpu.l1d.mem_side_port::system.mem_ctrl.port       146892                       # Packet count per connected requestor and responder (Count)
system.membus.pktCount_system.cpu.l1d.mem_side_port::total       146892                       # Packet count per connected requestor and responder (Count)
system.membus.pktCount_system.cpu.l1i.mem_side_port::system.mem_ctrl.port       553026                       # Packet count per connected requestor and responder (Count)
system.membus.pktCount_system.cpu.l1i.mem_side_port::total       553026                       # Packet count per connected requestor and responder (Count)
system.membus.pktCount::total                  699918                       # Packet count per connected requestor and responder (Count)
system.membus.pktSize_system.cpu.l1d.mem_side_port::system.mem_ctrl.port      4293824                       # Cumulative packet size per connected requestor and responder (Byte)
system.membus.pktSize_system.cpu.l1d.mem_side_port::total      4293824                       # Cumulative packet size per connected requestor and responder (Byte)
system.membus.pktSize_system.cpu.l1i.mem_side_port::system.mem_ctrl.port     11797888                       # Cumulative packet size per connected requestor and responder (Byte)
system.membus.pktSize_system.cpu.l1i.mem_side_port::total     11797888                       # Cumulative packet size per connected requestor and responder (Byte)
system.membus.pktSize::total                 16091712                       # Cumulative packet size per connected requestor and responder (Byte)
system.membus.snoops                                0                       # Total snoops (Count)
system.membus.snoopTraffic                          0                       # Total snoop traffic (Byte)
system.membus.snoopFanout::samples             233306                       # Request fanout histogram (Count)
system.membus.snoopFanout::mean                     0                       # Request fanout histogram (Count)
system.membus.snoopFanout::stdev                    0                       # Request fanout histogram (Count)
system.membus.snoopFanout::underflows               0      0.00%      0.00% # Request fanout histogram (Count)
system.membus.snoopFanout::0                   233306    100.00%    100.00% # Request fanout histogram (Count)
system.membus.snoopFanout::1                        0      0.00%    100.00% # Request fanout histogram (Count)
system.membus.snoopFanout::2                        0      0.00%    100.00% # Request fanout histogram (Count)
system.membus.snoopFanout::overflows                0      0.00%    100.00% # Request fanout histogram (Count)
system.membus.snoopFanout::min_value                0                       # Request fanout histogram (Count)
system.membus.snoopFanout::max_value                0                       # Request fanout histogram (Count)
system.membus.snoopFanout::total               233306                       # Request fanout histogram (Count)
system.membus.power_state.pwrStateResidencyTicks::UNDEFINED 136132036614                       # Cumulative time (in ticks) in various power states (Tick)
system.membus.reqLayer2.occupancy          7188086960                       # Layer occupancy (ticks) (Tick)
system.membus.reqLayer2.utilization               0.1                       # Layer utilization (Ratio)
system.membus.respLayer2.occupancy         3342782521                       # Layer occupancy (ticks) (Tick)
system.membus.respLayer2.utilization              0.0                       # Layer utilization (Ratio)
system.membus.respLayer3.occupancy        12526110098                       # Layer occupancy (ticks) (Tick)
system.membus.respLayer3.utilization              0.1                       # Layer utilization (Ratio)
system.membus.snoop_filter.totRequests         466612                       # Total number of requests made to the snoop filter. (Count)
system.membus.snoop_filter.hitSingleRequests       233306                       # Number of requests hitting in the snoop filter with a single holder of the requested data. (Count)
system.membus.snoop_filter.hitMultiRequests            0                       # Number of requests hitting in the snoop filter with multiple (>1) holders of the requested data. (Count)
system.membus.snoop_filter.totSnoops                0                       # Total number of snoops made to the snoop filter. (Count)
system.membus.snoop_filter.hitSingleSnoops            0                       # Number of snoops hitting in the snoop filter with a single holder of the requested data. (Count)
system.membus.snoop_filter.hitMultiSnoops            0                       # Number of snoops hitting in the snoop filter with multiple (>1) holders of the requested data. (Count)
system.workload.inst.arm                            0                       # number of arm instructions executed (Count)
system.workload.inst.quiesce                        0                       # number of quiesce instructions executed (Count)

---------- End Simulation Statistics   ----------
