
---------- Begin Simulation Statistics ----------
simSeconds                                  11.811959                       # Number of seconds simulated (Second)
simTicks                                 11811959013642                       # Number of ticks simulated (Tick)
finalTick                                11811959013642                       # Number of ticks from beginning of simulation (restored from checkpoints and never reset) (Tick)
simFreq                                  1000000000000                       # The number of ticks per simulated second ((Tick/Second))
hostSeconds                                    582.29                       # Real time elapsed on the host (Second)
hostTickRate                              20285457240                       # The number of ticks simulated per host second (ticks/s) ((Tick/Second))
hostMemory                                    8654408                       # Number of bytes of host memory used (Byte)
simInsts                                    388096543                       # Number of instructions simulated (Count)
simOps                                      647968583                       # Number of ops (including micro ops) simulated (Count)
hostInstRate                                   666504                       # Simulator instruction rate (inst/s) ((Count/Second))
hostOpRate                                    1112799                       # Simulator op (including micro ops) rate (op/s) ((Count/Second))
system.clk_domain.clock                         13333                       # Clock period in ticks (Tick)
system.clk_domain.voltage_domain.voltage            1                       # Voltage in Volts (Volt)
system.cpu.numCycles                        885919074                       # Number of cpu cycles simulated (Cycle)
system.cpu.cpi                               2.282663                       # CPI: cycles per instruction (core level) ((Cycle/Count))
system.cpu.ipc                               0.438085                       # IPC: instructions per cycle (core level) ((Count/Cycle))
system.cpu.numWorkItemsStarted                      0                       # Number of work items this cpu started (Count)
system.cpu.numWorkItemsCompleted                    0                       # Number of work items this cpu completed (Count)
system.cpu.commitStats0.numInsts            388107674                       # Number of instructions committed (thread level) (Count)
system.cpu.commitStats0.numOps              647979969                       # Number of ops (including micro ops) committed (thread level) (Count)
system.cpu.commitStats0.numInstsNotNOP              0                       # Number of instructions committed excluding NOPs or prefetches (Count)
system.cpu.commitStats0.numOpsNotNOP                0                       # Number of Ops (including micro ops) Simulated (Count)
system.cpu.commitStats0.cpi                  2.282663                       # CPI: cycles per instruction (thread level) ((Cycle/Count))
system.cpu.commitStats0.ipc                  0.438085                       # IPC: instructions per cycle (thread level) ((Count/Cycle))
system.cpu.commitStats0.numMemRefs                  0                       # Number of memory references committed (Count)
system.cpu.commitStats0.numFpInsts          128040633                       # Number of float instructions (Count)
system.cpu.commitStats0.numIntInsts         537441258                       # Number of integer instructions (Count)
system.cpu.commitStats0.numLoadInsts         96553596                       # Number of load instructions (Count)
system.cpu.commitStats0.numStoreInsts        41037188                       # Number of store instructions (Count)
system.cpu.commitStats0.numVecInsts                 0                       # Number of vector instructions (Count)
system.cpu.commitStats0.committedInstType::No_OpClass      3208105      0.50%      0.50% # Class of committed instruction. (Count)
system.cpu.commitStats0.committedInstType::IntAlu    420880567     64.95%     65.45% # Class of committed instruction. (Count)
system.cpu.commitStats0.committedInstType::IntMult      2434677      0.38%     65.82% # Class of committed instruction. (Count)
system.cpu.commitStats0.committedInstType::IntDiv      4411446      0.68%     66.50% # Class of committed instruction. (Count)
system.cpu.commitStats0.committedInstType::FloatAdd     18214466      2.81%     69.32% # Class of committed instruction. (Count)
system.cpu.commitStats0.committedInstType::FloatCmp            0      0.00%     69.32% # Class of committed instruction. (Count)
system.cpu.commitStats0.committedInstType::FloatCvt         1808      0.00%     69.32% # Class of committed instruction. (Count)
system.cpu.commitStats0.committedInstType::FloatMult            0      0.00%     69.32% # Class of committed instruction. (Count)
system.cpu.commitStats0.committedInstType::FloatMultAcc            0      0.00%     69.32% # Class of committed instruction. (Count)
system.cpu.commitStats0.committedInstType::FloatDiv            0      0.00%     69.32% # Class of committed instruction. (Count)
system.cpu.commitStats0.committedInstType::FloatMisc            0      0.00%     69.32% # Class of committed instruction. (Count)
system.cpu.commitStats0.committedInstType::FloatSqrt            0      0.00%     69.32% # Class of committed instruction. (Count)
system.cpu.commitStats0.committedInstType::SimdAdd         7004      0.00%     69.32% # Class of committed instruction. (Count)
system.cpu.commitStats0.committedInstType::SimdAddAcc            0      0.00%     69.32% # Class of committed instruction. (Count)
system.cpu.commitStats0.committedInstType::SimdAlu      1002364      0.15%     69.47% # Class of committed instruction. (Count)
system.cpu.commitStats0.committedInstType::SimdCmp            6      0.00%     69.47% # Class of committed instruction. (Count)
system.cpu.commitStats0.committedInstType::SimdCvt        46928      0.01%     69.48% # Class of committed instruction. (Count)
system.cpu.commitStats0.committedInstType::SimdMisc       108016      0.02%     69.50% # Class of committed instruction. (Count)
system.cpu.commitStats0.committedInstType::SimdMult            0      0.00%     69.50% # Class of committed instruction. (Count)
system.cpu.commitStats0.committedInstType::SimdMultAcc            0      0.00%     69.50% # Class of committed instruction. (Count)
system.cpu.commitStats0.committedInstType::SimdMatMultAcc            0      0.00%     69.50% # Class of committed instruction. (Count)
system.cpu.commitStats0.committedInstType::SimdShift         1891      0.00%     69.50% # Class of committed instruction. (Count)
system.cpu.commitStats0.committedInstType::SimdShiftAcc            0      0.00%     69.50% # Class of committed instruction. (Count)
system.cpu.commitStats0.committedInstType::SimdDiv            0      0.00%     69.50% # Class of committed instruction. (Count)
system.cpu.commitStats0.committedInstType::SimdSqrt            0      0.00%     69.50% # Class of committed instruction. (Count)
system.cpu.commitStats0.committedInstType::SimdFloatAdd     28146041      4.34%     73.84% # Class of committed instruction. (Count)
system.cpu.commitStats0.committedInstType::SimdFloatAlu            0      0.00%     73.84% # Class of committed instruction. (Count)
system.cpu.commitStats0.committedInstType::SimdFloatCmp            0      0.00%     73.84% # Class of committed instruction. (Count)
system.cpu.commitStats0.committedInstType::SimdFloatCvt      3129731      0.48%     74.32% # Class of committed instruction. (Count)
system.cpu.commitStats0.committedInstType::SimdFloatDiv       693700      0.11%     74.43% # Class of committed instruction. (Count)
system.cpu.commitStats0.committedInstType::SimdFloatMisc            0      0.00%     74.43% # Class of committed instruction. (Count)
system.cpu.commitStats0.committedInstType::SimdFloatMult     27622299      4.26%     78.69% # Class of committed instruction. (Count)
system.cpu.commitStats0.committedInstType::SimdFloatMultAcc            0      0.00%     78.69% # Class of committed instruction. (Count)
system.cpu.commitStats0.committedInstType::SimdFloatMatMultAcc            0      0.00%     78.69% # Class of committed instruction. (Count)
system.cpu.commitStats0.committedInstType::SimdFloatSqrt       480136      0.07%     78.77% # Class of committed instruction. (Count)
system.cpu.commitStats0.committedInstType::SimdReduceAdd            0      0.00%     78.77% # Class of committed instruction. (Count)
system.cpu.commitStats0.committedInstType::SimdReduceAlu            0      0.00%     78.77% # Class of committed instruction. (Count)
system.cpu.commitStats0.committedInstType::SimdReduceCmp            0      0.00%     78.77% # Class of committed instruction. (Count)
system.cpu.commitStats0.committedInstType::SimdFloatReduceAdd            0      0.00%     78.77% # Class of committed instruction. (Count)
system.cpu.commitStats0.committedInstType::SimdFloatReduceCmp            0      0.00%     78.77% # Class of committed instruction. (Count)
system.cpu.commitStats0.committedInstType::SimdAes            0      0.00%     78.77% # Class of committed instruction. (Count)
system.cpu.commitStats0.committedInstType::SimdAesMix            0      0.00%     78.77% # Class of committed instruction. (Count)
system.cpu.commitStats0.committedInstType::SimdSha1Hash            0      0.00%     78.77% # Class of committed instruction. (Count)
system.cpu.commitStats0.committedInstType::SimdSha1Hash2            0      0.00%     78.77% # Class of committed instruction. (Count)
system.cpu.commitStats0.committedInstType::SimdSha256Hash            0      0.00%     78.77% # Class of committed instruction. (Count)
system.cpu.commitStats0.committedInstType::SimdSha256Hash2            0      0.00%     78.77% # Class of committed instruction. (Count)
system.cpu.commitStats0.committedInstType::SimdShaSigma2            0      0.00%     78.77% # Class of committed instruction. (Count)
system.cpu.commitStats0.committedInstType::SimdShaSigma3            0      0.00%     78.77% # Class of committed instruction. (Count)
system.cpu.commitStats0.committedInstType::SimdPredAlu            0      0.00%     78.77% # Class of committed instruction. (Count)
system.cpu.commitStats0.committedInstType::Matrix            0      0.00%     78.77% # Class of committed instruction. (Count)
system.cpu.commitStats0.committedInstType::MatrixMov            0      0.00%     78.77% # Class of committed instruction. (Count)
system.cpu.commitStats0.committedInstType::MatrixOP            0      0.00%     78.77% # Class of committed instruction. (Count)
system.cpu.commitStats0.committedInstType::MemRead     74873626     11.55%     90.32% # Class of committed instruction. (Count)
system.cpu.commitStats0.committedInstType::MemWrite     38655080      5.97%     96.29% # Class of committed instruction. (Count)
system.cpu.commitStats0.committedInstType::FloatMemRead     21679970      3.35%     99.63% # Class of committed instruction. (Count)
system.cpu.commitStats0.committedInstType::FloatMemWrite      2382108      0.37%    100.00% # Class of committed instruction. (Count)
system.cpu.commitStats0.committedInstType::IprAccess            0      0.00%    100.00% # Class of committed instruction. (Count)
system.cpu.commitStats0.committedInstType::InstPrefetch            0      0.00%    100.00% # Class of committed instruction. (Count)
system.cpu.commitStats0.committedInstType::SimdUnitStrideLoad            0      0.00%    100.00% # Class of committed instruction. (Count)
system.cpu.commitStats0.committedInstType::SimdUnitStrideStore            0      0.00%    100.00% # Class of committed instruction. (Count)
system.cpu.commitStats0.committedInstType::SimdUnitStrideMaskLoad            0      0.00%    100.00% # Class of committed instruction. (Count)
system.cpu.commitStats0.committedInstType::SimdUnitStrideMaskStore            0      0.00%    100.00% # Class of committed instruction. (Count)
system.cpu.commitStats0.committedInstType::SimdStridedLoad            0      0.00%    100.00% # Class of committed instruction. (Count)
system.cpu.commitStats0.committedInstType::SimdStridedStore            0      0.00%    100.00% # Class of committed instruction. (Count)
system.cpu.commitStats0.committedInstType::SimdIndexedLoad            0      0.00%    100.00% # Class of committed instruction. (Count)
system.cpu.commitStats0.committedInstType::SimdIndexedStore            0      0.00%    100.00% # Class of committed instruction. (Count)
system.cpu.commitStats0.committedInstType::SimdWholeRegisterLoad            0      0.00%    100.00% # Class of committed instruction. (Count)
system.cpu.commitStats0.committedInstType::SimdWholeRegisterStore            0      0.00%    100.00% # Class of committed instruction. (Count)
system.cpu.commitStats0.committedInstType::SimdUnitStrideFaultOnlyFirstLoad            0      0.00%    100.00% # Class of committed instruction. (Count)
system.cpu.commitStats0.committedInstType::SimdUnitStrideSegmentedLoad            0      0.00%    100.00% # Class of committed instruction. (Count)
system.cpu.commitStats0.committedInstType::SimdUnitStrideSegmentedStore            0      0.00%    100.00% # Class of committed instruction. (Count)
system.cpu.commitStats0.committedInstType::SimdExt            0      0.00%    100.00% # Class of committed instruction. (Count)
system.cpu.commitStats0.committedInstType::SimdFloatExt            0      0.00%    100.00% # Class of committed instruction. (Count)
system.cpu.commitStats0.committedInstType::SimdConfig            0      0.00%    100.00% # Class of committed instruction. (Count)
system.cpu.commitStats0.committedInstType::total    647979969                       # Class of committed instruction. (Count)
system.cpu.commitStats0.committedControl::IsControl     56678419                       # Class of control type instructions committed (Count)
system.cpu.commitStats0.committedControl::IsDirectControl     53006241                       # Class of control type instructions committed (Count)
system.cpu.commitStats0.committedControl::IsIndirectControl      3671907                       # Class of control type instructions committed (Count)
system.cpu.commitStats0.committedControl::IsCondControl     43448522                       # Class of control type instructions committed (Count)
system.cpu.commitStats0.committedControl::IsUncondControl     13229626                       # Class of control type instructions committed (Count)
system.cpu.commitStats0.committedControl::IsCall      3437227                       # Class of control type instructions committed (Count)
system.cpu.commitStats0.committedControl::IsReturn      3437218                       # Class of control type instructions committed (Count)
system.cpu.exec_context.thread_0.numMatAluAccesses            0                       # Number of matrix alu accesses (Count)
system.cpu.exec_context.thread_0.numCallsReturns      6874445                       # Number of times a function call or return occured (Count)
system.cpu.exec_context.thread_0.numMatInsts            0                       # Number of matrix instructions (Count)
system.cpu.exec_context.thread_0.numIdleCycles     0.000075                       # Number of idle cycles (Cycle)
system.cpu.exec_context.thread_0.numBusyCycles 885919073.999925                       # Number of busy cycles (Cycle)
system.cpu.exec_context.thread_0.notIdleFraction     1.000000                       # Percentage of non-idle cycles (Ratio)
system.cpu.exec_context.thread_0.idleFraction     0.000000                       # Percentage of idle cycles (Ratio)
system.cpu.executeStats0.numInsts                   0                       # Number of executed instructions (Count)
system.cpu.executeStats0.numNop                     0                       # Number of nop insts executed (Count)
system.cpu.executeStats0.numBranches                0                       # Number of branches executed (Count)
system.cpu.executeStats0.numLoadInsts               0                       # Number of load instructions executed (Count)
system.cpu.executeStats0.numStoreInsts      137590784                       # Number of stores executed (Count)
system.cpu.executeStats0.instRate                   0                       # Inst execution rate ((Count/Cycle))
system.cpu.executeStats0.numFpAluAccesses    128040633                       # Number of float alu accesses (Count)
system.cpu.executeStats0.numFpRegReads      230318308                       # Number of times the floating registers were read (Count)
system.cpu.executeStats0.numFpRegWrites     122483292                       # Number of times the floating registers were written (Count)
system.cpu.executeStats0.numIntAluAccesses    537441258                       # Number of integer alu accesses (Count)
system.cpu.executeStats0.numIntRegReads     674007404                       # Number of times the integer registers were read (Count)
system.cpu.executeStats0.numIntRegWrites    387926238                       # Number of times the integer registers were written (Count)
system.cpu.executeStats0.numMemRefs         137590784                       # Number of memory refs (Count)
system.cpu.executeStats0.numMiscRegReads    248232089                       # Number of times the Misc registers were read (Count)
system.cpu.executeStats0.numMiscRegWrites         1017                       # Number of times the Misc registers were written (Count)
system.cpu.executeStats0.numVecAluAccesses            0                       # Number of vector alu accesses (Count)
system.cpu.executeStats0.numDiscardedOps            0                       # Number of ops (including micro ops) which were discarded before commit (Count)
system.cpu.fetchStats0.numInsts             388107674                       # Number of instructions fetched (thread level) (Count)
system.cpu.fetchStats0.numOps               647979969                       # Number of ops (including micro ops) fetched (thread level) (Count)
system.cpu.fetchStats0.fetchRate             0.438085                       # Number of inst fetches per cycle ((Count/Cycle))
system.cpu.fetchStats0.numBranches           56678419                       # Number of branches fetched (Count)
system.cpu.fetchStats0.branchRate            0.063977                       # Number of branch fetches per cycle (Ratio)
system.cpu.fetchStats0.numFetchSuspends             0                       # Number of times Execute suspended instruction fetching (Count)
system.cpu.interrupts.clk_domain.clock         213328                       # Clock period in ticks (Tick)
system.cpu.l1d.demandHits::cpu.data         123107719                       # number of demand (read+write) hits (Count)
system.cpu.l1d.demandHits::total            123107719                       # number of demand (read+write) hits (Count)
system.cpu.l1d.overallHits::cpu.data        123107719                       # number of overall hits (Count)
system.cpu.l1d.overallHits::total           123107719                       # number of overall hits (Count)
system.cpu.l1d.demandMisses::cpu.data        12055403                       # number of demand (read+write) misses (Count)
system.cpu.l1d.demandMisses::total           12055403                       # number of demand (read+write) misses (Count)
system.cpu.l1d.overallMisses::cpu.data       12055403                       # number of overall misses (Count)
system.cpu.l1d.overallMisses::total          12055403                       # number of overall misses (Count)
system.cpu.l1d.demandMissLatency::cpu.data 2584959507730                       # number of demand (read+write) miss ticks (Tick)
system.cpu.l1d.demandMissLatency::total  2584959507730                       # number of demand (read+write) miss ticks (Tick)
system.cpu.l1d.overallMissLatency::cpu.data 2584959507730                       # number of overall miss ticks (Tick)
system.cpu.l1d.overallMissLatency::total 2584959507730                       # number of overall miss ticks (Tick)
system.cpu.l1d.demandAccesses::cpu.data     135163122                       # number of demand (read+write) accesses (Count)
system.cpu.l1d.demandAccesses::total        135163122                       # number of demand (read+write) accesses (Count)
system.cpu.l1d.overallAccesses::cpu.data    135163122                       # number of overall (read+write) accesses (Count)
system.cpu.l1d.overallAccesses::total       135163122                       # number of overall (read+write) accesses (Count)
system.cpu.l1d.demandMissRate::cpu.data      0.089192                       # miss rate for demand accesses (Ratio)
system.cpu.l1d.demandMissRate::total         0.089192                       # miss rate for demand accesses (Ratio)
system.cpu.l1d.overallMissRate::cpu.data     0.089192                       # miss rate for overall accesses (Ratio)
system.cpu.l1d.overallMissRate::total        0.089192                       # miss rate for overall accesses (Ratio)
system.cpu.l1d.demandAvgMissLatency::cpu.data 214423.317722                       # average overall miss latency in ticks ((Tick/Count))
system.cpu.l1d.demandAvgMissLatency::total 214423.317722                       # average overall miss latency in ticks ((Tick/Count))
system.cpu.l1d.overallAvgMissLatency::cpu.data 214423.317722                       # average overall miss latency ((Tick/Count))
system.cpu.l1d.overallAvgMissLatency::total 214423.317722                       # average overall miss latency ((Tick/Count))
system.cpu.l1d.blockedCycles::no_mshrs              0                       # number of cycles access was blocked (Cycle)
system.cpu.l1d.blockedCycles::no_targets            0                       # number of cycles access was blocked (Cycle)
system.cpu.l1d.blockedCauses::no_mshrs              0                       # number of times access was blocked (Count)
system.cpu.l1d.blockedCauses::no_targets            0                       # number of times access was blocked (Count)
system.cpu.l1d.avgBlocked::no_mshrs               nan                       # average number of cycles each access was blocked ((Cycle/Count))
system.cpu.l1d.avgBlocked::no_targets             nan                       # average number of cycles each access was blocked ((Cycle/Count))
system.cpu.l1d.writebacks::writebacks         4831172                       # number of writebacks (Count)
system.cpu.l1d.writebacks::total              4831172                       # number of writebacks (Count)
system.cpu.l1d.demandMshrHits::cpu.data           745                       # number of demand (read+write) MSHR hits (Count)
system.cpu.l1d.demandMshrHits::total              745                       # number of demand (read+write) MSHR hits (Count)
system.cpu.l1d.overallMshrHits::cpu.data          745                       # number of overall MSHR hits (Count)
system.cpu.l1d.overallMshrHits::total             745                       # number of overall MSHR hits (Count)
system.cpu.l1d.demandMshrMisses::cpu.data     12054658                       # number of demand (read+write) MSHR misses (Count)
system.cpu.l1d.demandMshrMisses::total       12054658                       # number of demand (read+write) MSHR misses (Count)
system.cpu.l1d.overallMshrMisses::cpu.data     12054658                       # number of overall MSHR misses (Count)
system.cpu.l1d.overallMshrMisses::cpu.l1d.prefetcher      1423537                       # number of overall MSHR misses (Count)
system.cpu.l1d.overallMshrMisses::total      13478195                       # number of overall MSHR misses (Count)
system.cpu.l1d.demandMshrMissLatency::cpu.data 2424192940328                       # number of demand (read+write) MSHR miss ticks (Tick)
system.cpu.l1d.demandMshrMissLatency::total 2424192940328                       # number of demand (read+write) MSHR miss ticks (Tick)
system.cpu.l1d.overallMshrMissLatency::cpu.data 2424192940328                       # number of overall MSHR miss ticks (Tick)
system.cpu.l1d.overallMshrMissLatency::cpu.l1d.prefetcher 383632809065                       # number of overall MSHR miss ticks (Tick)
system.cpu.l1d.overallMshrMissLatency::total 2807825749393                       # number of overall MSHR miss ticks (Tick)
system.cpu.l1d.demandMshrMissRate::cpu.data     0.089186                       # mshr miss ratio for demand accesses (Ratio)
system.cpu.l1d.demandMshrMissRate::total     0.089186                       # mshr miss ratio for demand accesses (Ratio)
system.cpu.l1d.overallMshrMissRate::cpu.data     0.089186                       # mshr miss ratio for overall accesses (Ratio)
system.cpu.l1d.overallMshrMissRate::cpu.l1d.prefetcher          inf                       # mshr miss ratio for overall accesses (Ratio)
system.cpu.l1d.overallMshrMissRate::total     0.099718                       # mshr miss ratio for overall accesses (Ratio)
system.cpu.l1d.demandAvgMshrMissLatency::cpu.data 201100.100918                       # average overall mshr miss latency ((Tick/Count))
system.cpu.l1d.demandAvgMshrMissLatency::total 201100.100918                       # average overall mshr miss latency ((Tick/Count))
system.cpu.l1d.overallAvgMshrMissLatency::cpu.data 201100.100918                       # average overall mshr miss latency ((Tick/Count))
system.cpu.l1d.overallAvgMshrMissLatency::cpu.l1d.prefetcher 269492.685519                       # average overall mshr miss latency ((Tick/Count))
system.cpu.l1d.overallAvgMshrMissLatency::total 208323.573698                       # average overall mshr miss latency ((Tick/Count))
system.cpu.l1d.replacements                  13478295                       # number of replacements (Count)
system.cpu.l1d.HardPFReq.mshrMisses::cpu.l1d.prefetcher      1423537                       # number of HardPFReq MSHR misses (Count)
system.cpu.l1d.HardPFReq.mshrMisses::total      1423537                       # number of HardPFReq MSHR misses (Count)
system.cpu.l1d.HardPFReq.mshrMissLatency::cpu.l1d.prefetcher 383632809065                       # number of HardPFReq MSHR miss ticks (Tick)
system.cpu.l1d.HardPFReq.mshrMissLatency::total 383632809065                       # number of HardPFReq MSHR miss ticks (Tick)
system.cpu.l1d.HardPFReq.mshrMissRate::cpu.l1d.prefetcher          inf                       # mshr miss rate for HardPFReq accesses (Ratio)
system.cpu.l1d.HardPFReq.mshrMissRate::total          inf                       # mshr miss rate for HardPFReq accesses (Ratio)
system.cpu.l1d.HardPFReq.avgMshrMissLatency::cpu.l1d.prefetcher 269492.685519                       # average HardPFReq mshr miss latency ((Tick/Count))
system.cpu.l1d.HardPFReq.avgMshrMissLatency::total 269492.685519                       # average HardPFReq mshr miss latency ((Tick/Count))
system.cpu.l1d.LockedRMWReadReq.hits::cpu.data      1209711                       # number of LockedRMWReadReq hits (Count)
system.cpu.l1d.LockedRMWReadReq.hits::total      1209711                       # number of LockedRMWReadReq hits (Count)
system.cpu.l1d.LockedRMWReadReq.misses::cpu.data          164                       # number of LockedRMWReadReq misses (Count)
system.cpu.l1d.LockedRMWReadReq.misses::total          164                       # number of LockedRMWReadReq misses (Count)
system.cpu.l1d.LockedRMWReadReq.missLatency::cpu.data     33252502                       # number of LockedRMWReadReq miss ticks (Tick)
system.cpu.l1d.LockedRMWReadReq.missLatency::total     33252502                       # number of LockedRMWReadReq miss ticks (Tick)
system.cpu.l1d.LockedRMWReadReq.accesses::cpu.data      1209875                       # number of LockedRMWReadReq accesses(hits+misses) (Count)
system.cpu.l1d.LockedRMWReadReq.accesses::total      1209875                       # number of LockedRMWReadReq accesses(hits+misses) (Count)
system.cpu.l1d.LockedRMWReadReq.missRate::cpu.data     0.000136                       # miss rate for LockedRMWReadReq accesses (Ratio)
system.cpu.l1d.LockedRMWReadReq.missRate::total     0.000136                       # miss rate for LockedRMWReadReq accesses (Ratio)
system.cpu.l1d.LockedRMWReadReq.avgMissLatency::cpu.data 202759.158537                       # average LockedRMWReadReq miss latency ((Tick/Count))
system.cpu.l1d.LockedRMWReadReq.avgMissLatency::total 202759.158537                       # average LockedRMWReadReq miss latency ((Tick/Count))
system.cpu.l1d.LockedRMWReadReq.mshrMisses::cpu.data          164                       # number of LockedRMWReadReq MSHR misses (Count)
system.cpu.l1d.LockedRMWReadReq.mshrMisses::total          164                       # number of LockedRMWReadReq MSHR misses (Count)
system.cpu.l1d.LockedRMWReadReq.mshrMissLatency::cpu.data  16193395155                       # number of LockedRMWReadReq MSHR miss ticks (Tick)
system.cpu.l1d.LockedRMWReadReq.mshrMissLatency::total  16193395155                       # number of LockedRMWReadReq MSHR miss ticks (Tick)
system.cpu.l1d.LockedRMWReadReq.mshrMissRate::cpu.data     0.000136                       # mshr miss rate for LockedRMWReadReq accesses (Ratio)
system.cpu.l1d.LockedRMWReadReq.mshrMissRate::total     0.000136                       # mshr miss rate for LockedRMWReadReq accesses (Ratio)
system.cpu.l1d.LockedRMWReadReq.avgMshrMissLatency::cpu.data 98740214.359756                       # average LockedRMWReadReq mshr miss latency ((Tick/Count))
system.cpu.l1d.LockedRMWReadReq.avgMshrMissLatency::total 98740214.359756                       # average LockedRMWReadReq mshr miss latency ((Tick/Count))
system.cpu.l1d.LockedRMWWriteReq.hits::cpu.data      1209875                       # number of LockedRMWWriteReq hits (Count)
system.cpu.l1d.LockedRMWWriteReq.hits::total      1209875                       # number of LockedRMWWriteReq hits (Count)
system.cpu.l1d.LockedRMWWriteReq.accesses::cpu.data      1209875                       # number of LockedRMWWriteReq accesses(hits+misses) (Count)
system.cpu.l1d.LockedRMWWriteReq.accesses::total      1209875                       # number of LockedRMWWriteReq accesses(hits+misses) (Count)
system.cpu.l1d.ReadReq.hits::cpu.data        85073719                       # number of ReadReq hits (Count)
system.cpu.l1d.ReadReq.hits::total           85073719                       # number of ReadReq hits (Count)
system.cpu.l1d.ReadReq.misses::cpu.data      10270824                       # number of ReadReq misses (Count)
system.cpu.l1d.ReadReq.misses::total         10270824                       # number of ReadReq misses (Count)
system.cpu.l1d.ReadReq.missLatency::cpu.data 2221308039244                       # number of ReadReq miss ticks (Tick)
system.cpu.l1d.ReadReq.missLatency::total 2221308039244                       # number of ReadReq miss ticks (Tick)
system.cpu.l1d.ReadReq.accesses::cpu.data     95344543                       # number of ReadReq accesses(hits+misses) (Count)
system.cpu.l1d.ReadReq.accesses::total       95344543                       # number of ReadReq accesses(hits+misses) (Count)
system.cpu.l1d.ReadReq.missRate::cpu.data     0.107723                       # miss rate for ReadReq accesses (Ratio)
system.cpu.l1d.ReadReq.missRate::total       0.107723                       # miss rate for ReadReq accesses (Ratio)
system.cpu.l1d.ReadReq.avgMissLatency::cpu.data 216273.595891                       # average ReadReq miss latency ((Tick/Count))
system.cpu.l1d.ReadReq.avgMissLatency::total 216273.595891                       # average ReadReq miss latency ((Tick/Count))
system.cpu.l1d.ReadReq.mshrHits::cpu.data          587                       # number of ReadReq MSHR hits (Count)
system.cpu.l1d.ReadReq.mshrHits::total            587                       # number of ReadReq MSHR hits (Count)
system.cpu.l1d.ReadReq.mshrMisses::cpu.data     10270237                       # number of ReadReq MSHR misses (Count)
system.cpu.l1d.ReadReq.mshrMisses::total     10270237                       # number of ReadReq MSHR misses (Count)
system.cpu.l1d.ReadReq.mshrMissLatency::cpu.data 2084342930124                       # number of ReadReq MSHR miss ticks (Tick)
system.cpu.l1d.ReadReq.mshrMissLatency::total 2084342930124                       # number of ReadReq MSHR miss ticks (Tick)
system.cpu.l1d.ReadReq.mshrMissRate::cpu.data     0.107717                       # mshr miss rate for ReadReq accesses (Ratio)
system.cpu.l1d.ReadReq.mshrMissRate::total     0.107717                       # mshr miss rate for ReadReq accesses (Ratio)
system.cpu.l1d.ReadReq.avgMshrMissLatency::cpu.data 202949.837489                       # average ReadReq mshr miss latency ((Tick/Count))
system.cpu.l1d.ReadReq.avgMshrMissLatency::total 202949.837489                       # average ReadReq mshr miss latency ((Tick/Count))
system.cpu.l1d.WriteReq.hits::cpu.data       38034000                       # number of WriteReq hits (Count)
system.cpu.l1d.WriteReq.hits::total          38034000                       # number of WriteReq hits (Count)
system.cpu.l1d.WriteReq.misses::cpu.data      1784579                       # number of WriteReq misses (Count)
system.cpu.l1d.WriteReq.misses::total         1784579                       # number of WriteReq misses (Count)
system.cpu.l1d.WriteReq.missLatency::cpu.data 363651468486                       # number of WriteReq miss ticks (Tick)
system.cpu.l1d.WriteReq.missLatency::total 363651468486                       # number of WriteReq miss ticks (Tick)
system.cpu.l1d.WriteReq.accesses::cpu.data     39818579                       # number of WriteReq accesses(hits+misses) (Count)
system.cpu.l1d.WriteReq.accesses::total      39818579                       # number of WriteReq accesses(hits+misses) (Count)
system.cpu.l1d.WriteReq.missRate::cpu.data     0.044818                       # miss rate for WriteReq accesses (Ratio)
system.cpu.l1d.WriteReq.missRate::total      0.044818                       # miss rate for WriteReq accesses (Ratio)
system.cpu.l1d.WriteReq.avgMissLatency::cpu.data 203774.373948                       # average WriteReq miss latency ((Tick/Count))
system.cpu.l1d.WriteReq.avgMissLatency::total 203774.373948                       # average WriteReq miss latency ((Tick/Count))
system.cpu.l1d.WriteReq.mshrHits::cpu.data          158                       # number of WriteReq MSHR hits (Count)
system.cpu.l1d.WriteReq.mshrHits::total           158                       # number of WriteReq MSHR hits (Count)
system.cpu.l1d.WriteReq.mshrMisses::cpu.data      1784421                       # number of WriteReq MSHR misses (Count)
system.cpu.l1d.WriteReq.mshrMisses::total      1784421                       # number of WriteReq MSHR misses (Count)
system.cpu.l1d.WriteReq.mshrMissLatency::cpu.data 339850010204                       # number of WriteReq MSHR miss ticks (Tick)
system.cpu.l1d.WriteReq.mshrMissLatency::total 339850010204                       # number of WriteReq MSHR miss ticks (Tick)
system.cpu.l1d.WriteReq.mshrMissRate::cpu.data     0.044814                       # mshr miss rate for WriteReq accesses (Ratio)
system.cpu.l1d.WriteReq.mshrMissRate::total     0.044814                       # mshr miss rate for WriteReq accesses (Ratio)
system.cpu.l1d.WriteReq.avgMshrMissLatency::cpu.data 190453.940076                       # average WriteReq mshr miss latency ((Tick/Count))
system.cpu.l1d.WriteReq.avgMshrMissLatency::total 190453.940076                       # average WriteReq mshr miss latency ((Tick/Count))
system.cpu.l1d.power_state.pwrStateResidencyTicks::UNDEFINED 11811959013642                       # Cumulative time (in ticks) in various power states (Tick)
system.cpu.l1d.prefetcher.demandMshrMisses     12054658                       # demands not covered by prefetchs (Count)
system.cpu.l1d.prefetcher.pfIssued            3593558                       # number of hwpf issued (Count)
system.cpu.l1d.prefetcher.pfUnused             783475                       # number of HardPF blocks evicted w/o reference (Count)
system.cpu.l1d.prefetcher.pfUseful             639314                       # number of useful prefetch (Count)
system.cpu.l1d.prefetcher.pfUsefulButMiss            0                       # number of hit on prefetch but cache block is not in an usable state (Count)
system.cpu.l1d.prefetcher.accuracy           0.177906                       # accuracy of the prefetcher (Count)
system.cpu.l1d.prefetcher.coverage           0.050364                       # coverage brought by this prefetcher (Count)
system.cpu.l1d.prefetcher.pfHitInCache        2088111                       # number of prefetches hitting in cache (Count)
system.cpu.l1d.prefetcher.pfHitInMSHR           81685                       # number of prefetches hitting in a MSHR (Count)
system.cpu.l1d.prefetcher.pfHitInWB               225                       # number of prefetches hit in the Write Buffer (Count)
system.cpu.l1d.prefetcher.pfLate              2170021                       # number of late prefetches (hitting in cache, MSHR or WB) (Count)
system.cpu.l1d.prefetcher.pfIdentified        3593561                       # number of prefetch candidates identified (Count)
system.cpu.l1d.prefetcher.pfBufferHit               3                       # number of redundant prefetches already in prefetch queue (Count)
system.cpu.l1d.prefetcher.pfInCache                 0                       # number of redundant prefetches already in cache/mshr dropped (Count)
system.cpu.l1d.prefetcher.pfRemovedDemand            0                       # number of prefetches dropped due to a demand for the same address (Count)
system.cpu.l1d.prefetcher.pfRemovedFull             0                       # number of prefetches dropped due to prefetch queue size (Count)
system.cpu.l1d.prefetcher.pfSpanPage           271791                       # number of prefetches that crossed the page (Count)
system.cpu.l1d.prefetcher.pfUsefulSpanPage       137494                       # number of prefetches that is useful and crossed the page (Count)
system.cpu.l1d.prefetcher.power_state.pwrStateResidencyTicks::UNDEFINED 11811959013642                       # Cumulative time (in ticks) in various power states (Tick)
system.cpu.l1d.tags.tagsInUse               63.999898                       # Average ticks per tags in use ((Tick/Count))
system.cpu.l1d.tags.totalRefs               139005664                       # Total number of references to valid blocks. (Count)
system.cpu.l1d.tags.sampledRefs              13478359                       # Sample count of references to valid blocks. (Count)
system.cpu.l1d.tags.avgRefs                 10.313248                       # Average number of references to valid blocks. ((Count/Count))
system.cpu.l1d.tags.warmupTick                 479988                       # The tick when the warmup percentage was hit. (Tick)
system.cpu.l1d.tags.occupancies::cpu.data    54.057814                       # Average occupied blocks per tick, per requestor ((Count/Tick))
system.cpu.l1d.tags.occupancies::cpu.l1d.prefetcher     9.942084                       # Average occupied blocks per tick, per requestor ((Count/Tick))
system.cpu.l1d.tags.avgOccs::cpu.data        0.844653                       # Average percentage of cache occupancy ((Ratio/Tick))
system.cpu.l1d.tags.avgOccs::cpu.l1d.prefetcher     0.155345                       # Average percentage of cache occupancy ((Ratio/Tick))
system.cpu.l1d.tags.avgOccs::total           0.999998                       # Average percentage of cache occupancy ((Ratio/Tick))
system.cpu.l1d.tags.occupanciesTaskId::1022           15                       # Occupied blocks per task id (Count)
system.cpu.l1d.tags.occupanciesTaskId::1024           49                       # Occupied blocks per task id (Count)
system.cpu.l1d.tags.ageTaskId_1022::1               4                       # Occupied blocks per task id, per block age (Count)
system.cpu.l1d.tags.ageTaskId_1022::2              11                       # Occupied blocks per task id, per block age (Count)
system.cpu.l1d.tags.ageTaskId_1024::0               3                       # Occupied blocks per task id, per block age (Count)
system.cpu.l1d.tags.ageTaskId_1024::1              42                       # Occupied blocks per task id, per block age (Count)
system.cpu.l1d.tags.ageTaskId_1024::2               4                       # Occupied blocks per task id, per block age (Count)
system.cpu.l1d.tags.ratioOccsTaskId::1022     0.234375                       # Ratio of occupied blocks and all blocks, per task id (Ratio)
system.cpu.l1d.tags.ratioOccsTaskId::1024     0.765625                       # Ratio of occupied blocks and all blocks, per task id (Ratio)
system.cpu.l1d.tags.tagAccesses             288644103                       # Number of tag accesses (Count)
system.cpu.l1d.tags.dataAccesses            288644103                       # Number of data accesses (Count)
system.cpu.l1d.tags.power_state.pwrStateResidencyTicks::UNDEFINED 11811959013642                       # Cumulative time (in ticks) in various power states (Tick)
system.cpu.l1i.demandHits::cpu.inst         527805098                       # number of demand (read+write) hits (Count)
system.cpu.l1i.demandHits::total            527805098                       # number of demand (read+write) hits (Count)
system.cpu.l1i.overallHits::cpu.inst        527805098                       # number of overall hits (Count)
system.cpu.l1i.overallHits::total           527805098                       # number of overall hits (Count)
system.cpu.l1i.demandMisses::cpu.inst         1678330                       # number of demand (read+write) misses (Count)
system.cpu.l1i.demandMisses::total            1678330                       # number of demand (read+write) misses (Count)
system.cpu.l1i.overallMisses::cpu.inst        1678330                       # number of overall misses (Count)
system.cpu.l1i.overallMisses::total           1678330                       # number of overall misses (Count)
system.cpu.l1i.demandMissLatency::cpu.inst 356413196114                       # number of demand (read+write) miss ticks (Tick)
system.cpu.l1i.demandMissLatency::total  356413196114                       # number of demand (read+write) miss ticks (Tick)
system.cpu.l1i.overallMissLatency::cpu.inst 356413196114                       # number of overall miss ticks (Tick)
system.cpu.l1i.overallMissLatency::total 356413196114                       # number of overall miss ticks (Tick)
system.cpu.l1i.demandAccesses::cpu.inst     529483428                       # number of demand (read+write) accesses (Count)
system.cpu.l1i.demandAccesses::total        529483428                       # number of demand (read+write) accesses (Count)
system.cpu.l1i.overallAccesses::cpu.inst    529483428                       # number of overall (read+write) accesses (Count)
system.cpu.l1i.overallAccesses::total       529483428                       # number of overall (read+write) accesses (Count)
system.cpu.l1i.demandMissRate::cpu.inst      0.003170                       # miss rate for demand accesses (Ratio)
system.cpu.l1i.demandMissRate::total         0.003170                       # miss rate for demand accesses (Ratio)
system.cpu.l1i.overallMissRate::cpu.inst     0.003170                       # miss rate for overall accesses (Ratio)
system.cpu.l1i.overallMissRate::total        0.003170                       # miss rate for overall accesses (Ratio)
system.cpu.l1i.demandAvgMissLatency::cpu.inst 212361.809724                       # average overall miss latency in ticks ((Tick/Count))
system.cpu.l1i.demandAvgMissLatency::total 212361.809724                       # average overall miss latency in ticks ((Tick/Count))
system.cpu.l1i.overallAvgMissLatency::cpu.inst 212361.809724                       # average overall miss latency ((Tick/Count))
system.cpu.l1i.overallAvgMissLatency::total 212361.809724                       # average overall miss latency ((Tick/Count))
system.cpu.l1i.blockedCycles::no_mshrs              0                       # number of cycles access was blocked (Cycle)
system.cpu.l1i.blockedCycles::no_targets            0                       # number of cycles access was blocked (Cycle)
system.cpu.l1i.blockedCauses::no_mshrs              0                       # number of times access was blocked (Count)
system.cpu.l1i.blockedCauses::no_targets            0                       # number of times access was blocked (Count)
system.cpu.l1i.avgBlocked::no_mshrs               nan                       # average number of cycles each access was blocked ((Cycle/Count))
system.cpu.l1i.avgBlocked::no_targets             nan                       # average number of cycles each access was blocked ((Cycle/Count))
system.cpu.l1i.demandMshrMisses::cpu.inst      1678330                       # number of demand (read+write) MSHR misses (Count)
system.cpu.l1i.demandMshrMisses::total        1678330                       # number of demand (read+write) MSHR misses (Count)
system.cpu.l1i.overallMshrMisses::cpu.inst      1678330                       # number of overall MSHR misses (Count)
system.cpu.l1i.overallMshrMisses::total       1678330                       # number of overall MSHR misses (Count)
system.cpu.l1i.demandMshrMissLatency::cpu.inst 334036022224                       # number of demand (read+write) MSHR miss ticks (Tick)
system.cpu.l1i.demandMshrMissLatency::total 334036022224                       # number of demand (read+write) MSHR miss ticks (Tick)
system.cpu.l1i.overallMshrMissLatency::cpu.inst 334036022224                       # number of overall MSHR miss ticks (Tick)
system.cpu.l1i.overallMshrMissLatency::total 334036022224                       # number of overall MSHR miss ticks (Tick)
system.cpu.l1i.demandMshrMissRate::cpu.inst     0.003170                       # mshr miss ratio for demand accesses (Ratio)
system.cpu.l1i.demandMshrMissRate::total     0.003170                       # mshr miss ratio for demand accesses (Ratio)
system.cpu.l1i.overallMshrMissRate::cpu.inst     0.003170                       # mshr miss ratio for overall accesses (Ratio)
system.cpu.l1i.overallMshrMissRate::total     0.003170                       # mshr miss ratio for overall accesses (Ratio)
system.cpu.l1i.demandAvgMshrMissLatency::cpu.inst 199028.809724                       # average overall mshr miss latency ((Tick/Count))
system.cpu.l1i.demandAvgMshrMissLatency::total 199028.809724                       # average overall mshr miss latency ((Tick/Count))
system.cpu.l1i.overallAvgMshrMissLatency::cpu.inst 199028.809724                       # average overall mshr miss latency ((Tick/Count))
system.cpu.l1i.overallAvgMshrMissLatency::total 199028.809724                       # average overall mshr miss latency ((Tick/Count))
system.cpu.l1i.replacements                   1678266                       # number of replacements (Count)
system.cpu.l1i.ReadReq.hits::cpu.inst       527805098                       # number of ReadReq hits (Count)
system.cpu.l1i.ReadReq.hits::total          527805098                       # number of ReadReq hits (Count)
system.cpu.l1i.ReadReq.misses::cpu.inst       1678330                       # number of ReadReq misses (Count)
system.cpu.l1i.ReadReq.misses::total          1678330                       # number of ReadReq misses (Count)
system.cpu.l1i.ReadReq.missLatency::cpu.inst 356413196114                       # number of ReadReq miss ticks (Tick)
system.cpu.l1i.ReadReq.missLatency::total 356413196114                       # number of ReadReq miss ticks (Tick)
system.cpu.l1i.ReadReq.accesses::cpu.inst    529483428                       # number of ReadReq accesses(hits+misses) (Count)
system.cpu.l1i.ReadReq.accesses::total      529483428                       # number of ReadReq accesses(hits+misses) (Count)
system.cpu.l1i.ReadReq.missRate::cpu.inst     0.003170                       # miss rate for ReadReq accesses (Ratio)
system.cpu.l1i.ReadReq.missRate::total       0.003170                       # miss rate for ReadReq accesses (Ratio)
system.cpu.l1i.ReadReq.avgMissLatency::cpu.inst 212361.809724                       # average ReadReq miss latency ((Tick/Count))
system.cpu.l1i.ReadReq.avgMissLatency::total 212361.809724                       # average ReadReq miss latency ((Tick/Count))
system.cpu.l1i.ReadReq.mshrMisses::cpu.inst      1678330                       # number of ReadReq MSHR misses (Count)
system.cpu.l1i.ReadReq.mshrMisses::total      1678330                       # number of ReadReq MSHR misses (Count)
system.cpu.l1i.ReadReq.mshrMissLatency::cpu.inst 334036022224                       # number of ReadReq MSHR miss ticks (Tick)
system.cpu.l1i.ReadReq.mshrMissLatency::total 334036022224                       # number of ReadReq MSHR miss ticks (Tick)
system.cpu.l1i.ReadReq.mshrMissRate::cpu.inst     0.003170                       # mshr miss rate for ReadReq accesses (Ratio)
system.cpu.l1i.ReadReq.mshrMissRate::total     0.003170                       # mshr miss rate for ReadReq accesses (Ratio)
system.cpu.l1i.ReadReq.avgMshrMissLatency::cpu.inst 199028.809724                       # average ReadReq mshr miss latency ((Tick/Count))
system.cpu.l1i.ReadReq.avgMshrMissLatency::total 199028.809724                       # average ReadReq mshr miss latency ((Tick/Count))
system.cpu.l1i.power_state.pwrStateResidencyTicks::UNDEFINED 11811959013642                       # Cumulative time (in ticks) in various power states (Tick)
system.cpu.l1i.prefetcher.demandMshrMisses      1678330                       # demands not covered by prefetchs (Count)
system.cpu.l1i.prefetcher.pfIssued                  0                       # number of hwpf issued (Count)
system.cpu.l1i.prefetcher.pfUseful                  0                       # number of useful prefetch (Count)
system.cpu.l1i.prefetcher.pfUsefulButMiss            0                       # number of hit on prefetch but cache block is not in an usable state (Count)
system.cpu.l1i.prefetcher.accuracy                nan                       # accuracy of the prefetcher (Count)
system.cpu.l1i.prefetcher.coverage                  0                       # coverage brought by this prefetcher (Count)
system.cpu.l1i.prefetcher.pfHitInCache              0                       # number of prefetches hitting in cache (Count)
system.cpu.l1i.prefetcher.pfHitInMSHR               0                       # number of prefetches hitting in a MSHR (Count)
system.cpu.l1i.prefetcher.pfHitInWB                 0                       # number of prefetches hit in the Write Buffer (Count)
system.cpu.l1i.prefetcher.pfLate                    0                       # number of late prefetches (hitting in cache, MSHR or WB) (Count)
system.cpu.l1i.prefetcher.pfIdentified              0                       # number of prefetch candidates identified (Count)
system.cpu.l1i.prefetcher.pfBufferHit               0                       # number of redundant prefetches already in prefetch queue (Count)
system.cpu.l1i.prefetcher.pfInCache                 0                       # number of redundant prefetches already in cache/mshr dropped (Count)
system.cpu.l1i.prefetcher.pfRemovedDemand            0                       # number of prefetches dropped due to a demand for the same address (Count)
system.cpu.l1i.prefetcher.pfRemovedFull             0                       # number of prefetches dropped due to prefetch queue size (Count)
system.cpu.l1i.prefetcher.pfSpanPage                0                       # number of prefetches that crossed the page (Count)
system.cpu.l1i.prefetcher.pfUsefulSpanPage            0                       # number of prefetches that is useful and crossed the page (Count)
system.cpu.l1i.prefetcher.power_state.pwrStateResidencyTicks::UNDEFINED 11811959013642                       # Cumulative time (in ticks) in various power states (Tick)
system.cpu.l1i.tags.tagsInUse               63.999676                       # Average ticks per tags in use ((Tick/Count))
system.cpu.l1i.tags.totalRefs               529483428                       # Total number of references to valid blocks. (Count)
system.cpu.l1i.tags.sampledRefs               1678330                       # Sample count of references to valid blocks. (Count)
system.cpu.l1i.tags.avgRefs                315.482312                       # Average number of references to valid blocks. ((Count/Count))
system.cpu.l1i.tags.warmupTick                 199995                       # The tick when the warmup percentage was hit. (Tick)
system.cpu.l1i.tags.occupancies::cpu.inst    63.999676                       # Average occupied blocks per tick, per requestor ((Count/Tick))
system.cpu.l1i.tags.avgOccs::cpu.inst        0.999995                       # Average percentage of cache occupancy ((Ratio/Tick))
system.cpu.l1i.tags.avgOccs::total           0.999995                       # Average percentage of cache occupancy ((Ratio/Tick))
system.cpu.l1i.tags.occupanciesTaskId::1024           64                       # Occupied blocks per task id (Count)
system.cpu.l1i.tags.ageTaskId_1024::0              19                       # Occupied blocks per task id, per block age (Count)
system.cpu.l1i.tags.ageTaskId_1024::1              38                       # Occupied blocks per task id, per block age (Count)
system.cpu.l1i.tags.ageTaskId_1024::2               1                       # Occupied blocks per task id, per block age (Count)
system.cpu.l1i.tags.ageTaskId_1024::3               6                       # Occupied blocks per task id, per block age (Count)
system.cpu.l1i.tags.ratioOccsTaskId::1024            1                       # Ratio of occupied blocks and all blocks, per task id (Ratio)
system.cpu.l1i.tags.tagAccesses            1060645186                       # Number of tag accesses (Count)
system.cpu.l1i.tags.dataAccesses           1060645186                       # Number of data accesses (Count)
system.cpu.l1i.tags.power_state.pwrStateResidencyTicks::UNDEFINED 11811959013642                       # Cumulative time (in ticks) in various power states (Tick)
system.cpu.mmu.dtb.rdAccesses                96554680                       # TLB accesses on read requests (Count)
system.cpu.mmu.dtb.wrAccesses                41038275                       # TLB accesses on write requests (Count)
system.cpu.mmu.dtb.rdMisses                   4008421                       # TLB misses on read requests (Count)
system.cpu.mmu.dtb.wrMisses                    116430                       # TLB misses on write requests (Count)
system.cpu.mmu.dtb.walker.power_state.pwrStateResidencyTicks::UNDEFINED 11811959013642                       # Cumulative time (in ticks) in various power states (Tick)
system.cpu.mmu.itb.rdAccesses                       0                       # TLB accesses on read requests (Count)
system.cpu.mmu.itb.wrAccesses               529483591                       # TLB accesses on write requests (Count)
system.cpu.mmu.itb.rdMisses                         0                       # TLB misses on read requests (Count)
system.cpu.mmu.itb.wrMisses                       807                       # TLB misses on write requests (Count)
system.cpu.mmu.itb.walker.power_state.pwrStateResidencyTicks::UNDEFINED 11811959013642                       # Cumulative time (in ticks) in various power states (Tick)
system.cpu.power_state.pwrStateResidencyTicks::ON 11811959013642                       # Cumulative time (in ticks) in various power states (Tick)
system.cpu.thread_0.numInsts                        0                       # Number of Instructions committed (Count)
system.cpu.thread_0.numOps                          0                       # Number of Ops committed (Count)
system.cpu.thread_0.numMemRefs                      0                       # Number of Memory References (Count)
system.cpu.workload.numSyscalls                  1320                       # Number of system calls (Count)
system.mem_ctrl.avgPriority_writebacks::samples   4110374.00                       # Average QoS priority value for accepted requests (Count)
system.mem_ctrl.avgPriority_cpu.inst::samples   1678330.00                       # Average QoS priority value for accepted requests (Count)
system.mem_ctrl.avgPriority_cpu.data::samples  10566227.00                       # Average QoS priority value for accepted requests (Count)
system.mem_ctrl.avgPriority_cpu.l1d.prefetcher::samples   1391348.00                       # Average QoS priority value for accepted requests (Count)
system.mem_ctrl.priorityMinLatency       0.000000018750                       # per QoS priority minimum request to response latency (Second)
system.mem_ctrl.priorityMaxLatency       0.044875363922                       # per QoS priority maximum request to response latency (Second)
system.mem_ctrl.numReadWriteTurnArounds        229244                       # Number of turnarounds from READ to WRITE (Count)
system.mem_ctrl.numWriteReadTurnArounds        229244                       # Number of turnarounds from WRITE to READ (Count)
system.mem_ctrl.numStayReadState             35088111                       # Number of times bus staying in READ state (Count)
system.mem_ctrl.numStayWriteState             3885140                       # Number of times bus staying in WRITE state (Count)
system.mem_ctrl.readReqs                     15156689                       # Number of read requests accepted (Count)
system.mem_ctrl.writeReqs                     4831172                       # Number of write requests accepted (Count)
system.mem_ctrl.readBursts                   15156689                       # Number of controller read bursts, including those serviced by the write queue (Count)
system.mem_ctrl.writeBursts                   4831172                       # Number of controller write bursts, including those merged in the write queue (Count)
system.mem_ctrl.servicedByWrQ                 1520784                       # Number of controller read bursts serviced by the write queue (Count)
system.mem_ctrl.mergedWrBursts                 720798                       # Number of controller write bursts merged with an existing one (Count)
system.mem_ctrl.neitherReadNorWriteReqs             0                       # Number of requests that are neither read nor write (Count)
system.mem_ctrl.avgRdQLen                        1.03                       # Average read queue length when enqueuing ((Count/Tick))
system.mem_ctrl.avgWrQLen                       24.65                       # Average write queue length when enqueuing ((Count/Tick))
system.mem_ctrl.numRdRetry                          0                       # Number of times read queue was full causing retry (Count)
system.mem_ctrl.numWrRetry                          0                       # Number of times write queue was full causing retry (Count)
system.mem_ctrl.readPktSize::0                      0                       # Read request sizes (log2) (Count)
system.mem_ctrl.readPktSize::1                      0                       # Read request sizes (log2) (Count)
system.mem_ctrl.readPktSize::2                      0                       # Read request sizes (log2) (Count)
system.mem_ctrl.readPktSize::3                      0                       # Read request sizes (log2) (Count)
system.mem_ctrl.readPktSize::4                      0                       # Read request sizes (log2) (Count)
system.mem_ctrl.readPktSize::5                      0                       # Read request sizes (log2) (Count)
system.mem_ctrl.readPktSize::6               15156689                       # Read request sizes (log2) (Count)
system.mem_ctrl.writePktSize::0                     0                       # Write request sizes (log2) (Count)
system.mem_ctrl.writePktSize::1                     0                       # Write request sizes (log2) (Count)
system.mem_ctrl.writePktSize::2                     0                       # Write request sizes (log2) (Count)
system.mem_ctrl.writePktSize::3                     0                       # Write request sizes (log2) (Count)
system.mem_ctrl.writePktSize::4                     0                       # Write request sizes (log2) (Count)
system.mem_ctrl.writePktSize::5                     0                       # Write request sizes (log2) (Count)
system.mem_ctrl.writePktSize::6               4831172                       # Write request sizes (log2) (Count)
system.mem_ctrl.rdQLenPdf::0                 12824634                       # What read queue length does an incoming req see (Count)
system.mem_ctrl.rdQLenPdf::1                   560789                       # What read queue length does an incoming req see (Count)
system.mem_ctrl.rdQLenPdf::2                   211429                       # What read queue length does an incoming req see (Count)
system.mem_ctrl.rdQLenPdf::3                    35437                       # What read queue length does an incoming req see (Count)
system.mem_ctrl.rdQLenPdf::4                     3586                       # What read queue length does an incoming req see (Count)
system.mem_ctrl.rdQLenPdf::5                       30                       # What read queue length does an incoming req see (Count)
system.mem_ctrl.rdQLenPdf::6                        0                       # What read queue length does an incoming req see (Count)
system.mem_ctrl.rdQLenPdf::7                        0                       # What read queue length does an incoming req see (Count)
system.mem_ctrl.rdQLenPdf::8                        0                       # What read queue length does an incoming req see (Count)
system.mem_ctrl.rdQLenPdf::9                        0                       # What read queue length does an incoming req see (Count)
system.mem_ctrl.rdQLenPdf::10                       0                       # What read queue length does an incoming req see (Count)
system.mem_ctrl.rdQLenPdf::11                       0                       # What read queue length does an incoming req see (Count)
system.mem_ctrl.rdQLenPdf::12                       0                       # What read queue length does an incoming req see (Count)
system.mem_ctrl.rdQLenPdf::13                       0                       # What read queue length does an incoming req see (Count)
system.mem_ctrl.rdQLenPdf::14                       0                       # What read queue length does an incoming req see (Count)
system.mem_ctrl.rdQLenPdf::15                       0                       # What read queue length does an incoming req see (Count)
system.mem_ctrl.rdQLenPdf::16                       0                       # What read queue length does an incoming req see (Count)
system.mem_ctrl.rdQLenPdf::17                       0                       # What read queue length does an incoming req see (Count)
system.mem_ctrl.rdQLenPdf::18                       0                       # What read queue length does an incoming req see (Count)
system.mem_ctrl.rdQLenPdf::19                       0                       # What read queue length does an incoming req see (Count)
system.mem_ctrl.rdQLenPdf::20                       0                       # What read queue length does an incoming req see (Count)
system.mem_ctrl.rdQLenPdf::21                       0                       # What read queue length does an incoming req see (Count)
system.mem_ctrl.rdQLenPdf::22                       0                       # What read queue length does an incoming req see (Count)
system.mem_ctrl.rdQLenPdf::23                       0                       # What read queue length does an incoming req see (Count)
system.mem_ctrl.rdQLenPdf::24                       0                       # What read queue length does an incoming req see (Count)
system.mem_ctrl.rdQLenPdf::25                       0                       # What read queue length does an incoming req see (Count)
system.mem_ctrl.rdQLenPdf::26                       0                       # What read queue length does an incoming req see (Count)
system.mem_ctrl.rdQLenPdf::27                       0                       # What read queue length does an incoming req see (Count)
system.mem_ctrl.rdQLenPdf::28                       0                       # What read queue length does an incoming req see (Count)
system.mem_ctrl.rdQLenPdf::29                       0                       # What read queue length does an incoming req see (Count)
system.mem_ctrl.rdQLenPdf::30                       0                       # What read queue length does an incoming req see (Count)
system.mem_ctrl.rdQLenPdf::31                       0                       # What read queue length does an incoming req see (Count)
system.mem_ctrl.wrQLenPdf::0                        1                       # What write queue length does an incoming req see (Count)
system.mem_ctrl.wrQLenPdf::1                        1                       # What write queue length does an incoming req see (Count)
system.mem_ctrl.wrQLenPdf::2                        1                       # What write queue length does an incoming req see (Count)
system.mem_ctrl.wrQLenPdf::3                        1                       # What write queue length does an incoming req see (Count)
system.mem_ctrl.wrQLenPdf::4                        1                       # What write queue length does an incoming req see (Count)
system.mem_ctrl.wrQLenPdf::5                        1                       # What write queue length does an incoming req see (Count)
system.mem_ctrl.wrQLenPdf::6                        1                       # What write queue length does an incoming req see (Count)
system.mem_ctrl.wrQLenPdf::7                        1                       # What write queue length does an incoming req see (Count)
system.mem_ctrl.wrQLenPdf::8                        1                       # What write queue length does an incoming req see (Count)
system.mem_ctrl.wrQLenPdf::9                        1                       # What write queue length does an incoming req see (Count)
system.mem_ctrl.wrQLenPdf::10                       1                       # What write queue length does an incoming req see (Count)
system.mem_ctrl.wrQLenPdf::11                       1                       # What write queue length does an incoming req see (Count)
system.mem_ctrl.wrQLenPdf::12                       1                       # What write queue length does an incoming req see (Count)
system.mem_ctrl.wrQLenPdf::13                       1                       # What write queue length does an incoming req see (Count)
system.mem_ctrl.wrQLenPdf::14                       1                       # What write queue length does an incoming req see (Count)
system.mem_ctrl.wrQLenPdf::15                  215120                       # What write queue length does an incoming req see (Count)
system.mem_ctrl.wrQLenPdf::16                  224916                       # What write queue length does an incoming req see (Count)
system.mem_ctrl.wrQLenPdf::17                  229983                       # What write queue length does an incoming req see (Count)
system.mem_ctrl.wrQLenPdf::18                  229718                       # What write queue length does an incoming req see (Count)
system.mem_ctrl.wrQLenPdf::19                  229519                       # What write queue length does an incoming req see (Count)
system.mem_ctrl.wrQLenPdf::20                  229363                       # What write queue length does an incoming req see (Count)
system.mem_ctrl.wrQLenPdf::21                  229325                       # What write queue length does an incoming req see (Count)
system.mem_ctrl.wrQLenPdf::22                  229325                       # What write queue length does an incoming req see (Count)
system.mem_ctrl.wrQLenPdf::23                  229300                       # What write queue length does an incoming req see (Count)
system.mem_ctrl.wrQLenPdf::24                  229285                       # What write queue length does an incoming req see (Count)
system.mem_ctrl.wrQLenPdf::25                  229339                       # What write queue length does an incoming req see (Count)
system.mem_ctrl.wrQLenPdf::26                  229274                       # What write queue length does an incoming req see (Count)
system.mem_ctrl.wrQLenPdf::27                  229272                       # What write queue length does an incoming req see (Count)
system.mem_ctrl.wrQLenPdf::28                  229266                       # What write queue length does an incoming req see (Count)
system.mem_ctrl.wrQLenPdf::29                  229261                       # What write queue length does an incoming req see (Count)
system.mem_ctrl.wrQLenPdf::30                  229261                       # What write queue length does an incoming req see (Count)
system.mem_ctrl.wrQLenPdf::31                  229247                       # What write queue length does an incoming req see (Count)
system.mem_ctrl.wrQLenPdf::32                  229246                       # What write queue length does an incoming req see (Count)
system.mem_ctrl.wrQLenPdf::33                     275                       # What write queue length does an incoming req see (Count)
system.mem_ctrl.wrQLenPdf::34                      57                       # What write queue length does an incoming req see (Count)
system.mem_ctrl.wrQLenPdf::35                       7                       # What write queue length does an incoming req see (Count)
system.mem_ctrl.wrQLenPdf::36                       0                       # What write queue length does an incoming req see (Count)
system.mem_ctrl.wrQLenPdf::37                       0                       # What write queue length does an incoming req see (Count)
system.mem_ctrl.wrQLenPdf::38                       0                       # What write queue length does an incoming req see (Count)
system.mem_ctrl.wrQLenPdf::39                       0                       # What write queue length does an incoming req see (Count)
system.mem_ctrl.wrQLenPdf::40                       0                       # What write queue length does an incoming req see (Count)
system.mem_ctrl.wrQLenPdf::41                       0                       # What write queue length does an incoming req see (Count)
system.mem_ctrl.wrQLenPdf::42                       0                       # What write queue length does an incoming req see (Count)
system.mem_ctrl.wrQLenPdf::43                       0                       # What write queue length does an incoming req see (Count)
system.mem_ctrl.wrQLenPdf::44                       0                       # What write queue length does an incoming req see (Count)
system.mem_ctrl.wrQLenPdf::45                       0                       # What write queue length does an incoming req see (Count)
system.mem_ctrl.wrQLenPdf::46                       0                       # What write queue length does an incoming req see (Count)
system.mem_ctrl.wrQLenPdf::47                       0                       # What write queue length does an incoming req see (Count)
system.mem_ctrl.wrQLenPdf::48                       0                       # What write queue length does an incoming req see (Count)
system.mem_ctrl.wrQLenPdf::49                       0                       # What write queue length does an incoming req see (Count)
system.mem_ctrl.wrQLenPdf::50                       0                       # What write queue length does an incoming req see (Count)
system.mem_ctrl.wrQLenPdf::51                       0                       # What write queue length does an incoming req see (Count)
system.mem_ctrl.wrQLenPdf::52                       0                       # What write queue length does an incoming req see (Count)
system.mem_ctrl.wrQLenPdf::53                       0                       # What write queue length does an incoming req see (Count)
system.mem_ctrl.wrQLenPdf::54                       0                       # What write queue length does an incoming req see (Count)
system.mem_ctrl.wrQLenPdf::55                       0                       # What write queue length does an incoming req see (Count)
system.mem_ctrl.wrQLenPdf::56                       0                       # What write queue length does an incoming req see (Count)
system.mem_ctrl.wrQLenPdf::57                       0                       # What write queue length does an incoming req see (Count)
system.mem_ctrl.wrQLenPdf::58                       0                       # What write queue length does an incoming req see (Count)
system.mem_ctrl.wrQLenPdf::59                       0                       # What write queue length does an incoming req see (Count)
system.mem_ctrl.wrQLenPdf::60                       0                       # What write queue length does an incoming req see (Count)
system.mem_ctrl.wrQLenPdf::61                       0                       # What write queue length does an incoming req see (Count)
system.mem_ctrl.wrQLenPdf::62                       0                       # What write queue length does an incoming req see (Count)
system.mem_ctrl.wrQLenPdf::63                       0                       # What write queue length does an incoming req see (Count)
system.mem_ctrl.rdPerTurnAround::samples       229244                       # Reads before turning the bus around for writes (Count)
system.mem_ctrl.rdPerTurnAround::mean       59.481430                       # Reads before turning the bus around for writes (Count)
system.mem_ctrl.rdPerTurnAround::gmean      48.677689                       # Reads before turning the bus around for writes (Count)
system.mem_ctrl.rdPerTurnAround::stdev     145.554832                       # Reads before turning the bus around for writes (Count)
system.mem_ctrl.rdPerTurnAround::0-255         228477     99.67%     99.67% # Reads before turning the bus around for writes (Count)
system.mem_ctrl.rdPerTurnAround::256-511          483      0.21%     99.88% # Reads before turning the bus around for writes (Count)
system.mem_ctrl.rdPerTurnAround::512-767           37      0.02%     99.89% # Reads before turning the bus around for writes (Count)
system.mem_ctrl.rdPerTurnAround::768-1023           12      0.01%     99.90% # Reads before turning the bus around for writes (Count)
system.mem_ctrl.rdPerTurnAround::1024-1279            3      0.00%     99.90% # Reads before turning the bus around for writes (Count)
system.mem_ctrl.rdPerTurnAround::1280-1535            3      0.00%     99.90% # Reads before turning the bus around for writes (Count)
system.mem_ctrl.rdPerTurnAround::1536-1791            2      0.00%     99.90% # Reads before turning the bus around for writes (Count)
system.mem_ctrl.rdPerTurnAround::1792-2047            5      0.00%     99.90% # Reads before turning the bus around for writes (Count)
system.mem_ctrl.rdPerTurnAround::2048-2303            9      0.00%     99.91% # Reads before turning the bus around for writes (Count)
system.mem_ctrl.rdPerTurnAround::2304-2559            6      0.00%     99.91% # Reads before turning the bus around for writes (Count)
system.mem_ctrl.rdPerTurnAround::2560-2815            6      0.00%     99.91% # Reads before turning the bus around for writes (Count)
system.mem_ctrl.rdPerTurnAround::2816-3071            5      0.00%     99.91% # Reads before turning the bus around for writes (Count)
system.mem_ctrl.rdPerTurnAround::3072-3327           13      0.01%     99.92% # Reads before turning the bus around for writes (Count)
system.mem_ctrl.rdPerTurnAround::3328-3583            8      0.00%     99.92% # Reads before turning the bus around for writes (Count)
system.mem_ctrl.rdPerTurnAround::3584-3839           17      0.01%     99.93% # Reads before turning the bus around for writes (Count)
system.mem_ctrl.rdPerTurnAround::3840-4095           20      0.01%     99.94% # Reads before turning the bus around for writes (Count)
system.mem_ctrl.rdPerTurnAround::4096-4351           22      0.01%     99.95% # Reads before turning the bus around for writes (Count)
system.mem_ctrl.rdPerTurnAround::4352-4607           13      0.01%     99.96% # Reads before turning the bus around for writes (Count)
system.mem_ctrl.rdPerTurnAround::4608-4863           21      0.01%     99.96% # Reads before turning the bus around for writes (Count)
system.mem_ctrl.rdPerTurnAround::4864-5119           16      0.01%     99.97% # Reads before turning the bus around for writes (Count)
system.mem_ctrl.rdPerTurnAround::5120-5375           18      0.01%     99.98% # Reads before turning the bus around for writes (Count)
system.mem_ctrl.rdPerTurnAround::5376-5631           16      0.01%     99.99% # Reads before turning the bus around for writes (Count)
system.mem_ctrl.rdPerTurnAround::5632-5887           11      0.00%     99.99% # Reads before turning the bus around for writes (Count)
system.mem_ctrl.rdPerTurnAround::5888-6143            8      0.00%     99.99% # Reads before turning the bus around for writes (Count)
system.mem_ctrl.rdPerTurnAround::6144-6399            1      0.00%     99.99% # Reads before turning the bus around for writes (Count)
system.mem_ctrl.rdPerTurnAround::6400-6655            5      0.00%    100.00% # Reads before turning the bus around for writes (Count)
system.mem_ctrl.rdPerTurnAround::6656-6911            3      0.00%    100.00% # Reads before turning the bus around for writes (Count)
system.mem_ctrl.rdPerTurnAround::6912-7167            2      0.00%    100.00% # Reads before turning the bus around for writes (Count)
system.mem_ctrl.rdPerTurnAround::7168-7423            2      0.00%    100.00% # Reads before turning the bus around for writes (Count)
system.mem_ctrl.rdPerTurnAround::total         229244                       # Reads before turning the bus around for writes (Count)
system.mem_ctrl.wrPerTurnAround::samples       229244                       # Writes before turning the bus around for reads (Count)
system.mem_ctrl.wrPerTurnAround::mean       17.930035                       # Writes before turning the bus around for reads (Count)
system.mem_ctrl.wrPerTurnAround::gmean      17.925554                       # Writes before turning the bus around for reads (Count)
system.mem_ctrl.wrPerTurnAround::stdev       0.391178                       # Writes before turning the bus around for reads (Count)
system.mem_ctrl.wrPerTurnAround::16              5956      2.60%      2.60% # Writes before turning the bus around for reads (Count)
system.mem_ctrl.wrPerTurnAround::17              8072      3.52%      6.12% # Writes before turning the bus around for reads (Count)
system.mem_ctrl.wrPerTurnAround::18            211421     92.23%     98.34% # Writes before turning the bus around for reads (Count)
system.mem_ctrl.wrPerTurnAround::19              3672      1.60%     99.95% # Writes before turning the bus around for reads (Count)
system.mem_ctrl.wrPerTurnAround::20                99      0.04%     99.99% # Writes before turning the bus around for reads (Count)
system.mem_ctrl.wrPerTurnAround::21                21      0.01%    100.00% # Writes before turning the bus around for reads (Count)
system.mem_ctrl.wrPerTurnAround::22                 3      0.00%    100.00% # Writes before turning the bus around for reads (Count)
system.mem_ctrl.wrPerTurnAround::total         229244                       # Writes before turning the bus around for reads (Count)
system.mem_ctrl.bytesReadWrQ                 97330176                       # Total number of bytes read from write queue (Byte)
system.mem_ctrl.bytesReadSys                970028096                       # Total read bytes from the system interface side (Byte)
[...]
system.mem_ctrl.dram.bwInstRead::cpu.inst      9093591                       # Instruction read bandwidth from this memory ((Byte/Second))
system.mem_ctrl.dram.bwInstRead::total        9093591                       # Instruction read bandwidth from this memory ((Byte/Second))
system.mem_ctrl.dram.bwWrite::writebacks     26176438                       # Write bandwidth from this memory ((Byte/Second))
system.mem_ctrl.dram.bwWrite::total          26176438                       # Write bandwidth from this memory ((Byte/Second))
system.mem_ctrl.dram.bwTotal::writebacks     26176438                       # Total bandwidth to/from this memory ((Byte/Second))
system.mem_ctrl.dram.bwTotal::cpu.inst        9093591                       # Total bandwidth to/from this memory ((Byte/Second))
system.mem_ctrl.dram.bwTotal::cpu.data       65315889                       # Total bandwidth to/from this memory ((Byte/Second))
system.mem_ctrl.dram.bwTotal::cpu.l1d.prefetcher      7713062                       # Total bandwidth to/from this memory ((Byte/Second))
system.mem_ctrl.dram.bwTotal::total         108298979                       # Total bandwidth to/from this memory ((Byte/Second))
system.mem_ctrl.dram.readBursts              13635905                       # Number of DRAM read bursts (Count)
system.mem_ctrl.dram.writeBursts              4110353                       # Number of DRAM write bursts (Count)
system.mem_ctrl.dram.perBankRdBursts::0        702601                       # Per bank write bursts (Count)
system.mem_ctrl.dram.perBankRdBursts::1        859882                       # Per bank write bursts (Count)
system.mem_ctrl.dram.perBankRdBursts::2       1195897                       # Per bank write bursts (Count)
system.mem_ctrl.dram.perBankRdBursts::3       1003913                       # Per bank write bursts (Count)
system.mem_ctrl.dram.perBankRdBursts::4       1101821                       # Per bank write bursts (Count)
system.mem_ctrl.dram.perBankRdBursts::5        844352                       # Per bank write bursts (Count)
system.mem_ctrl.dram.perBankRdBursts::6        693471                       # Per bank write bursts (Count)
system.mem_ctrl.dram.perBankRdBursts::7       1118549                       # Per bank write bursts (Count)
system.mem_ctrl.dram.perBankRdBursts::8       1352297                       # Per bank write bursts (Count)
system.mem_ctrl.dram.perBankRdBursts::9        757447                       # Per bank write bursts (Count)
system.mem_ctrl.dram.perBankRdBursts::10       621008                       # Per bank write bursts (Count)
system.mem_ctrl.dram.perBankRdBursts::11       664336                       # Per bank write bursts (Count)
system.mem_ctrl.dram.perBankRdBursts::12       717065                       # Per bank write bursts (Count)
system.mem_ctrl.dram.perBankRdBursts::13       621675                       # Per bank write bursts (Count)
system.mem_ctrl.dram.perBankRdBursts::14       631802                       # Per bank write bursts (Count)
system.mem_ctrl.dram.perBankRdBursts::15       749789                       # Per bank write bursts (Count)
system.mem_ctrl.dram.perBankWrBursts::0        195968                       # Per bank write bursts (Count)
system.mem_ctrl.dram.perBankWrBursts::1        202343                       # Per bank write bursts (Count)
system.mem_ctrl.dram.perBankWrBursts::2        189272                       # Per bank write bursts (Count)
system.mem_ctrl.dram.perBankWrBursts::3        205020                       # Per bank write bursts (Count)
system.mem_ctrl.dram.perBankWrBursts::4        211725                       # Per bank write bursts (Count)
system.mem_ctrl.dram.perBankWrBursts::5        268059                       # Per bank write bursts (Count)
system.mem_ctrl.dram.perBankWrBursts::6        199585                       # Per bank write bursts (Count)
system.mem_ctrl.dram.perBankWrBursts::7        234659                       # Per bank write bursts (Count)
system.mem_ctrl.dram.perBankWrBursts::8        926472                       # Per bank write bursts (Count)
system.mem_ctrl.dram.perBankWrBursts::9        213903                       # Per bank write bursts (Count)
system.mem_ctrl.dram.perBankWrBursts::10       214617                       # Per bank write bursts (Count)
system.mem_ctrl.dram.perBankWrBursts::11       211568                       # Per bank write bursts (Count)
system.mem_ctrl.dram.perBankWrBursts::12       195956                       # Per bank write bursts (Count)
system.mem_ctrl.dram.perBankWrBursts::13       193174                       # Per bank write bursts (Count)
system.mem_ctrl.dram.perBankWrBursts::14       199318                       # Per bank write bursts (Count)
system.mem_ctrl.dram.perBankWrBursts::15       248714                       # Per bank write bursts (Count)
system.mem_ctrl.dram.totQLat             229697600523                       # Total ticks spent queuing (Tick)
system.mem_ctrl.dram.totBusLat            68179525000                       # Total ticks spent in databus transfers (Tick)
system.mem_ctrl.dram.totMemAccLat        485370819273                       # Total ticks spent from burst creation until serviced by the DRAM (Tick)
system.mem_ctrl.dram.avgQLat                 16845.06                       # Average queueing delay per DRAM burst ((Tick/Count))
system.mem_ctrl.dram.avgBusLat                5000.00                       # Average bus latency per DRAM burst ((Tick/Count))
system.mem_ctrl.dram.avgMemAccLat            35595.06                       # Average memory access latency per DRAM burst ((Tick/Count))
system.mem_ctrl.dram.readRowHits              3961615                       # Number of row buffer hits during reads (Count)
system.mem_ctrl.dram.writeRowHits             2215202                       # Number of row buffer hits during writes (Count)
system.mem_ctrl.dram.readRowHitRate             29.05                       # Row buffer hit rate for reads (Ratio)
system.mem_ctrl.dram.writeRowHitRate            53.89                       # Row buffer hit rate for writes (Ratio)
system.mem_ctrl.dram.bytesPerActivate::samples     11569435                       # Bytes accessed per row activation (Byte)
system.mem_ctrl.dram.bytesPerActivate::mean    98.168967                       # Bytes accessed per row activation (Byte)
system.mem_ctrl.dram.bytesPerActivate::gmean    81.709689                       # Bytes accessed per row activation (Byte)
system.mem_ctrl.dram.bytesPerActivate::stdev    96.410785                       # Bytes accessed per row activation (Byte)
system.mem_ctrl.dram.bytesPerActivate::0-127      8784267     75.93%     75.93% # Bytes accessed per row activation (Byte)
system.mem_ctrl.dram.bytesPerActivate::128-255      2088276     18.05%     93.98% # Bytes accessed per row activation (Byte)
system.mem_ctrl.dram.bytesPerActivate::256-383       418593      3.62%     97.59% # Bytes accessed per row activation (Byte)
system.mem_ctrl.dram.bytesPerActivate::384-511       121523      1.05%     98.64% # Bytes accessed per row activation (Byte)
system.mem_ctrl.dram.bytesPerActivate::512-639        72253      0.62%     99.27% # Bytes accessed per row activation (Byte)
system.mem_ctrl.dram.bytesPerActivate::640-767        26234      0.23%     99.50% # Bytes accessed per row activation (Byte)
system.mem_ctrl.dram.bytesPerActivate::768-895        15595      0.13%     99.63% # Bytes accessed per row activation (Byte)
system.mem_ctrl.dram.bytesPerActivate::896-1023         9644      0.08%     99.71% # Bytes accessed per row activation (Byte)
system.mem_ctrl.dram.bytesPerActivate::1024-1151        33050      0.29%    100.00% # Bytes accessed per row activation (Byte)
system.mem_ctrl.dram.bytesPerActivate::total     11569435                       # Bytes accessed per row activation (Byte)
system.mem_ctrl.dram.dramBytesRead          872697920                       # Total bytes read (Byte)
system.mem_ctrl.dram.dramBytesWritten       263062592                       # Total bytes written (Byte)
system.mem_ctrl.dram.avgRdBW                73.882573                       # Average DRAM read bandwidth in MiBytes/s ((Byte/Second))
system.mem_ctrl.dram.avgWrBW                22.270869                       # Average DRAM write bandwidth in MiBytes/s ((Byte/Second))
system.mem_ctrl.dram.peakBW                  12800.00                       # Theoretical peak bandwidth in MiByte/s ((Byte/Second))
system.mem_ctrl.dram.busUtil                     0.75                       # Data bus utilization in percentage (Ratio)
system.mem_ctrl.dram.busUtilRead                 0.58                       # Data bus utilization in percentage for reads (Ratio)
system.mem_ctrl.dram.busUtilWrite                0.17                       # Data bus utilization in percentage for writes (Ratio)
system.mem_ctrl.dram.pageHitRate                34.81                       # Row buffer hit rate, read and write combined (Ratio)
system.mem_ctrl.dram.power_state.pwrStateResidencyTicks::UNDEFINED 11811959013642                       # Cumulative time (in ticks) in various power states (Tick)
system.mem_ctrl.dram.rank0.actEnergy      43817980080                       # Energy for activate commands per rank (pJ) (Joule)
system.mem_ctrl.dram.rank0.preEnergy      23289793560                       # Energy for precharge commands per rank (pJ) (Joule)
system.mem_ctrl.dram.rank0.readEnergy     53696270040                       # Energy for read commands per rank (pJ) (Joule)
system.mem_ctrl.dram.rank0.writeEnergy     8908613820                       # Energy for write commands per rank (pJ) (Joule)
system.mem_ctrl.dram.rank0.refreshEnergy 932425475280.000122                       # Energy for refresh commands per rank (pJ) (Joule)
system.mem_ctrl.dram.rank0.actBackEnergy 4134231324270                       # Energy for active background per rank (pJ) (Joule)
system.mem_ctrl.dram.rank0.preBackEnergy 1054334304000                       # Energy for precharge background per rank (pJ) (Joule)
system.mem_ctrl.dram.rank0.actPowerDownEnergy            0                       # Energy for active power-down per rank (pJ) (Joule)
system.mem_ctrl.dram.rank0.prePowerDownEnergy            0                       # Energy for precharge power-down per rank (pJ) (Joule)
system.mem_ctrl.dram.rank0.selfRefreshEnergy            0                       # Energy for self refresh per rank (pJ) (Joule)
system.mem_ctrl.dram.rank0.totalEnergy   6250703761050                       # Total energy per rank (pJ) (Joule)
system.mem_ctrl.dram.rank0.averagePower    529.184342                       # Core power per rank (mW) (Watt)
system.mem_ctrl.dram.rank0.totalIdleTime            0                       # Total Idle time Per DRAM Rank (Tick)
system.mem_ctrl.dram.rank0.pwrStateTime::IDLE 2702141336238                       # Time in different power states (Tick)
system.mem_ctrl.dram.rank0.pwrStateTime::REF 394427020000                       # Time in different power states (Tick)
system.mem_ctrl.dram.rank0.pwrStateTime::SREF            0                       # Time in different power states (Tick)
system.mem_ctrl.dram.rank0.pwrStateTime::PRE_PDN            0                       # Time in different power states (Tick)
system.mem_ctrl.dram.rank0.pwrStateTime::ACT 8715390657404                       # Time in different power states (Tick)
system.mem_ctrl.dram.rank0.pwrStateTime::ACT_PDN            0                       # Time in different power states (Tick)
system.mem_ctrl.dram.rank1.actEnergy      38787828660                       # Energy for activate commands per rank (pJ) (Joule)
system.mem_ctrl.dram.rank1.preEnergy      20616212265                       # Energy for precharge commands per rank (pJ) (Joule)
system.mem_ctrl.dram.rank1.readEnergy     43664091660                       # Energy for read commands per rank (pJ) (Joule)
system.mem_ctrl.dram.rank1.writeEnergy    12547428840                       # Energy for write commands per rank (pJ) (Joule)
system.mem_ctrl.dram.rank1.refreshEnergy 932425475280.000122                       # Energy for refresh commands per rank (pJ) (Joule)
system.mem_ctrl.dram.rank1.actBackEnergy 3811875546060                       # Energy for active background per rank (pJ) (Joule)
system.mem_ctrl.dram.rank1.preBackEnergy 1325791801440                       # Energy for precharge background per rank (pJ) (Joule)
system.mem_ctrl.dram.rank1.actPowerDownEnergy            0                       # Energy for active power-down per rank (pJ) (Joule)
system.mem_ctrl.dram.rank1.prePowerDownEnergy            0                       # Energy for precharge power-down per rank (pJ) (Joule)
system.mem_ctrl.dram.rank1.selfRefreshEnergy            0                       # Energy for self refresh per rank (pJ) (Joule)
system.mem_ctrl.dram.rank1.totalEnergy   6185708384205                       # Total energy per rank (pJ) (Joule)
system.mem_ctrl.dram.rank1.averagePower    523.681836                       # Core power per rank (mW) (Watt)
system.mem_ctrl.dram.rank1.totalIdleTime            0                       # Total Idle time Per DRAM Rank (Tick)
system.mem_ctrl.dram.rank1.pwrStateTime::IDLE 3410354988162                       # Time in different power states (Tick)
system.mem_ctrl.dram.rank1.pwrStateTime::REF 394427020000                       # Time in different power states (Tick)
system.mem_ctrl.dram.rank1.pwrStateTime::SREF            0                       # Time in different power states (Tick)
system.mem_ctrl.dram.rank1.pwrStateTime::PRE_PDN            0                       # Time in different power states (Tick)
system.mem_ctrl.dram.rank1.pwrStateTime::ACT 8007177005480                       # Time in different power states (Tick)
system.mem_ctrl.dram.rank1.pwrStateTime::ACT_PDN            0                       # Time in different power states (Tick)
system.mem_ctrl.power_state.pwrStateResidencyTicks::UNDEFINED 11811959013642                       # Cumulative time (in ticks) in various power states (Tick)
system.membus.transDist::ReadResp            13372104                       # Transaction distribution (Count)
system.membus.transDist::WritebackDirty       4831172                       # Transaction distribution (Count)
system.membus.transDist::CleanEvict          10325389                       # Transaction distribution (Count)
system.membus.transDist::ReadExReq            1784585                       # Transaction distribution (Count)
system.membus.transDist::ReadExResp           1784585                       # Transaction distribution (Count)
system.membus.transDist::ReadSharedReq       13372104                       # Transaction distribution (Count)
system.membus.pktCount_system.cpu.l1d.mem_side_port::system.mem_ctrl.port     40435013                       # Packet count per connected requestor and responder (Count)
system.membus.pktCount_system.cpu.l1d.mem_side_port::total     40435013                       # Packet count per connected requestor and responder (Count)
system.membus.pktCount_system.cpu.l1i.mem_side_port::system.mem_ctrl.port      5034926                       # Packet count per connected requestor and responder (Count)
system.membus.pktCount_system.cpu.l1i.mem_side_port::total      5034926                       # Packet count per connected requestor and responder (Count)
system.membus.pktCount::total                45469939                       # Packet count per connected requestor and responder (Count)
system.membus.pktSize_system.cpu.l1d.mem_side_port::system.mem_ctrl.port   1171809984                       # Cumulative packet size per connected requestor and responder (Byte)
system.membus.pktSize_system.cpu.l1d.mem_side_port::total   1171809984                       # Cumulative packet size per connected requestor and responder (Byte)
system.membus.pktSize_system.cpu.l1i.mem_side_port::system.mem_ctrl.port    107413120                       # Cumulative packet size per connected requestor and responder (Byte)
system.membus.pktSize_system.cpu.l1i.mem_side_port::total    107413120                       # Cumulative packet size per connected requestor and responder (Byte)
system.membus.pktSize::total               1279223104                       # Cumulative packet size per connected requestor and responder (Byte)
system.membus.snoops                                0                       # Total snoops (Count)
system.membus.snoopTraffic                          0                       # Total snoop traffic (Byte)
system.membus.snoopFanout::samples           15156689                       # Request fanout histogram (Count)
system.membus.snoopFanout::mean                     0                       # Request fanout histogram (Count)
system.membus.snoopFanout::stdev                    0                       # Request fanout histogram (Count)
system.membus.snoopFanout::underflows               0      0.00%      0.00% # Request fanout histogram (Count)
system.membus.snoopFanout::0                 15156689    100.00%    100.00% # Request fanout histogram (Count)
system.membus.snoopFanout::1                        0      0.00%    100.00% # Request fanout histogram (Count)
system.membus.snoopFanout::2                        0      0.00%    100.00% # Request fanout histogram (Count)
system.membus.snoopFanout::overflows                0      0.00%    100.00% # Request fanout histogram (Count)
system.membus.snoopFanout::min_value                0                       # Request fanout histogram (Count)
system.membus.snoopFanout::max_value                0                       # Request fanout histogram (Count)
system.membus.snoopFanout::total             15156689                       # Request fanout histogram (Count)
system.membus.power_state.pwrStateResidencyTicks::UNDEFINED 11811959013642                       # Cumulative time (in ticks) in various power states (Tick)
system.membus.reqLayer2.occupancy        668162873761                       # Layer occupancy (ticks) (Tick)
system.membus.reqLayer2.utilization               0.1                       # Layer utilization (Ratio)
system.membus.respLayer2.occupancy       915390265022                       # Layer occupancy (ticks) (Tick)
system.membus.respLayer2.utilization              0.1                       # Layer utilization (Ratio)
system.membus.respLayer3.occupancy       114079111841                       # Layer occupancy (ticks) (Tick)
system.membus.respLayer3.utilization              0.0                       # Layer utilization (Ratio)
system.membus.snoop_filter.totRequests       30313250                       # Total number of requests made to the snoop filter. (Count)
system.membus.snoop_filter.hitSingleRequests     15156561                       # Number of requests hitting in the snoop filter with a single holder of the requested data. (Count)
system.membus.snoop_filter.hitMultiRequests            0                       # Number of requests hitting in the snoop filter with multiple (>1) holders of the requested data. (Count)
system.membus.snoop_filter.totSnoops                0                       # Total number of snoops made to the snoop filter. (Count)
system.membus.snoop_filter.hitSingleSnoops            0                       # Number of snoops hitting in the snoop filter with a single holder of the requested data. (Count)
system.membus.snoop_filter.hitMultiSnoops            0                       # Number of snoops hitting in the snoop filter with multiple (>1) holders of the requested data. (Count)
system.workload.inst.arm                            0                       # number of arm instructions executed (Count)
system.workload.inst.quiesce                        0                       # number of quiesce instructions executed (Count)

---------- End Simulation Statistics   ----------
